CHEMBL260719      none
 OpenBabel11202420153D

 26 29  0  0  0  0  0  0  0  0999 V2000
   35.1554   40.9656   53.2357 C   0  0  0  0  0  0  0  0  0  0  0  0
   35.5424   40.2852   52.1485 C   0  0  0  0  0  0  0  0  0  0  0  0
   35.2492   38.5715   52.4387 S   0  0  0  0  0  0  0  0  0  0  0  0
   34.6182   38.9559   54.0381 C   0  0  0  0  0  0  0  0  0  0  0  0
   34.1096   37.9745   55.0172 C   0  0  0  0  0  0  0  0  0  0  0  0
   33.6318   38.3955   56.2718 C   0  0  0  0  0  0  0  0  0  0  0  0
   33.4961   39.9903   56.9968 S   0  0  0  0  0  0  0  0  0  0  0  0
   32.8157   39.3145   58.4673 C   0  0  0  0  0  0  0  0  0  0  0  0
   32.7164   37.9980   58.3779 C   0  0  0  0  0  0  0  0  0  0  0  0
   33.1586   37.4324   57.1714 C   0  0  0  0  0  0  0  0  0  0  0  0
   33.1865   36.1396   56.7818 N   0  0  0  0  0  0  0  0  0  0  0  0
   33.6406   35.7955   55.6018 C   0  0  0  0  0  0  0  0  0  0  0  0
   33.6457   34.3359   55.2268 C   0  0  0  0  0  0  0  0  0  0  0  0
   34.9561   33.7461   54.7016 C   0  0  0  0  0  0  0  0  0  0  0  0
   34.4619   33.3841   56.1036 C   0  0  0  0  0  0  0  0  0  0  0  0
   34.0986   36.6739   54.7309 N   0  0  0  0  0  0  0  0  0  0  0  0
   34.6672   40.2457   54.2162 N   0  0  0  0  0  0  0  0  0  0  0  0
   35.2368   42.0406   53.2987 H   0  0  0  0  0  0  0  0  0  0  0  0
   35.9615   40.7127   51.2496 H   0  0  0  0  0  0  0  0  0  0  0  0
   32.5184   39.8948   59.3284 H   0  0  0  0  0  0  0  0  0  0  0  0
   32.3198   37.3965   59.1825 H   0  0  0  0  0  0  0  0  0  0  0  0
   32.7168   33.9565   54.8013 H   0  0  0  0  0  0  0  0  0  0  0  0
   34.8892   32.9785   53.9306 H   0  0  0  0  0  0  0  0  0  0  0  0
   35.8146   34.4137   54.6273 H   0  0  0  0  0  0  0  0  0  0  0  0
   34.9952   33.8136   56.9516 H   0  0  0  0  0  0  0  0  0  0  0  0
   34.0695   32.3785   56.2553 H   0  0  0  0  0  0  0  0  0  0  0  0
  1 17  1  0  0  0  0
  1  2  2  0  0  0  0
  1 18  1  0  0  0  0
  2  3  1  0  0  0  0
  2 19  1  0  0  0  0
  3  4  1  0  0  0  0
  4  5  1  0  0  0  0
  4 17  2  0  0  0  0
  5 16  2  0  0  0  0
  5  6  1  0  0  0  0
  6 10  2  0  0  0  0
  6  7  1  0  0  0  0
  7  8  1  0  0  0  0
  8  9  2  0  0  0  0
  8 20  1  0  0  0  0
  9 10  1  0  0  0  0
  9 21  1  0  0  0  0
 10 11  1  0  0  0  0
 11 12  2  0  0  0  0
 12 13  1  0  0  0  0
 12 16  1  0  0  0  0
 13 15  1  0  0  0  0
 13 14  1  0  0  0  0
 13 22  1  0  0  0  0
 14 15  1  0  0  0  0
 14 23  1  0  0  0  0
 14 24  1  0  0  0  0
 15 25  1  0  0  0  0
 15 26  1  0  0  0  0
M  END
$$$$
