CHEMBL259736      none
 OpenBabel11202420153D

 33 35  0  0  0  0  0  0  0  0999 V2000
   33.4611   36.3010   63.6747 N   0  0  0  0  0  0  0  0  0  0  0  0
   32.5067   36.9170   63.6748 C   0  0  0  0  0  0  0  0  0  0  0  0
   31.3035   37.6936   63.6748 C   0  0  0  0  0  0  0  0  0  0  0  0
   30.5580   37.8779   62.4916 C   0  0  0  0  0  0  0  0  0  0  0  0
   31.0045   37.2689   61.2174 C   0  0  0  0  0  0  0  0  0  0  0  0
   31.8515   37.9745   60.3631 C   0  0  0  0  0  0  0  0  0  0  0  0
   32.2675   37.4001   59.1794 C   0  0  0  0  0  0  0  0  0  0  0  0
   31.8378   36.1311   58.8347 C   0  0  0  0  0  0  0  0  0  0  0  0
   30.9937   35.4282   59.6756 C   0  0  0  0  0  0  0  0  0  0  0  0
   30.5747   35.9898   60.8641 C   0  0  0  0  0  0  0  0  0  0  0  0
   29.4477   38.6073   62.5397 N   0  0  0  0  0  0  0  0  0  0  0  0
   29.0398   39.1557   63.6748 C   0  0  0  0  0  0  0  0  0  0  0  0
   27.8797   39.9050   63.6747 N   0  0  0  0  0  0  0  0  0  0  0  0
   29.7104   39.0140   64.8087 N   0  0  0  0  0  0  0  0  0  0  0  0
   30.8288   38.2974   64.8582 C   0  0  0  0  0  0  0  0  0  0  0  0
   31.5670   38.1403   66.1326 C   0  0  0  0  0  0  0  0  0  0  0  0
   31.2711   37.0779   66.9867 C   0  0  0  0  0  0  0  0  0  0  0  0
   31.9652   36.9343   68.1706 C   0  0  0  0  0  0  0  0  0  0  0  0
   32.9457   37.8471   68.5158 C   0  0  0  0  0  0  0  0  0  0  0  0
   33.2405   38.9056   67.6752 C   0  0  0  0  0  0  0  0  0  0  0  0
   32.5567   39.0572   66.4863 C   0  0  0  0  0  0  0  0  0  0  0  0
   32.1840   38.9670   60.6291 H   0  0  0  0  0  0  0  0  0  0  0  0
   32.9268   37.9439   58.5190 H   0  0  0  0  0  0  0  0  0  0  0  0
   32.1630   35.6872   57.9054 H   0  0  0  0  0  0  0  0  0  0  0  0
   30.6616   34.4378   59.4010 H   0  0  0  0  0  0  0  0  0  0  0  0
   29.9156   35.4402   61.5198 H   0  0  0  0  0  0  0  0  0  0  0  0
   27.3781   40.0225   62.8528 H   0  0  0  0  0  0  0  0  0  0  0  0
   27.5642   40.3106   64.4975 H   0  0  0  0  0  0  0  0  0  0  0  0
   30.5027   36.3673   66.7203 H   0  0  0  0  0  0  0  0  0  0  0  0
   31.7399   36.1098   68.8308 H   0  0  0  0  0  0  0  0  0  0  0  0
   33.4837   37.7326   69.4453 H   0  0  0  0  0  0  0  0  0  0  0  0
   34.0070   39.6149   67.9501 H   0  0  0  0  0  0  0  0  0  0  0  0
   32.7875   39.8839   65.8308 H   0  0  0  0  0  0  0  0  0  0  0  0
  1  2  3  0  0  0  0
  2  3  1  0  0  0  0
  3 15  2  0  0  0  0
  3  4  1  0  0  0  0
  4  5  1  0  0  0  0
  4 11  2  0  0  0  0
  5 10  2  0  0  0  0
  5  6  1  0  0  0  0
  6  7  2  0  0  0  0
  6 22  1  0  0  0  0
  7  8  1  0  0  0  0
  7 23  1  0  0  0  0
  8  9  2  0  0  0  0
  8 24  1  0  0  0  0
  9 10  1  0  0  0  0
  9 25  1  0  0  0  0
 10 26  1  0  0  0  0
 11 12  1  0  0  0  0
 12 13  1  0  0  0  0
 12 14  2  0  0  0  0
 13 27  1  0  0  0  0
 13 28  1  0  0  0  0
 14 15  1  0  0  0  0
 15 16  1  0  0  0  0
 16 21  2  0  0  0  0
 16 17  1  0  0  0  0
 17 18  2  0  0  0  0
 17 29  1  0  0  0  0
 18 19  1  0  0  0  0
 18 30  1  0  0  0  0
 19 20  2  0  0  0  0
 19 31  1  0  0  0  0
 20 21  1  0  0  0  0
 20 32  1  0  0  0  0
 21 33  1  0  0  0  0
M  END
$$$$
