CHEMBL122806      none
 OpenBabel11202420153D

 37 39  0  0  0  0  0  0  0  0999 V2000
   32.7801   38.9668   59.6221 N   0  0  0  0  0  0  0  0  0  0  0  0
   32.5150   37.8624   59.6445 C   0  0  0  0  0  0  0  0  0  0  0  0
   32.1808   36.4702   59.6726 C   0  0  0  0  0  0  0  0  0  0  0  0
   32.2781   35.6879   58.5064 C   0  0  0  0  0  0  0  0  0  0  0  0
   32.8165   36.4327   57.0030 S   0  0  0  0  0  0  0  0  0  0  0  0
   32.7456   34.9998   55.8994 C   0  0  0  0  0  0  0  0  0  0  0  0
   33.1765   35.4104   54.5149 C   0  0  0  0  0  0  0  0  0  0  0  0
   32.5763   35.0833   53.4032 N   0  0  0  0  0  0  0  0  0  0  0  0
   33.2359   35.6249   52.3685 C   0  0  0  0  0  0  0  0  0  0  0  0
   34.2847   36.3136   52.8575 C   0  0  0  0  0  0  0  0  0  0  0  0
   34.2475   36.1778   54.2191 N   0  0  0  0  0  0  0  0  0  0  0  0
   31.9654   34.4008   58.5223 N   0  0  0  0  0  0  0  0  0  0  0  0
   31.5609   33.7878   59.6230 C   0  0  0  0  0  0  0  0  0  0  0  0
   31.2542   32.4426   59.5792 N   0  0  0  0  0  0  0  0  0  0  0  0
   31.4332   34.4894   60.8365 C   0  0  0  0  0  0  0  0  0  0  0  0
   30.9897   33.8182   62.0211 C   0  0  0  0  0  0  0  0  0  0  0  0
   30.6376   33.2858   62.9609 N   0  0  0  0  0  0  0  0  0  0  0  0
   31.7490   35.8620   60.8677 C   0  0  0  0  0  0  0  0  0  0  0  0
   31.6301   36.6424   62.1193 C   0  0  0  0  0  0  0  0  0  0  0  0
   32.7194   36.7477   62.9850 C   0  0  0  0  0  0  0  0  0  0  0  0
   32.6051   37.4767   64.1513 C   0  0  0  0  0  0  0  0  0  0  0  0
   31.4141   38.1043   64.4652 C   0  0  0  0  0  0  0  0  0  0  0  0
   30.3248   38.0052   63.6097 C   0  0  0  0  0  0  0  0  0  0  0  0
   29.1563   38.6243   63.9232 O   0  0  0  0  0  0  0  0  0  0  0  0
   30.4303   37.2803   62.4349 C   0  0  0  0  0  0  0  0  0  0  0  0
   31.7251   34.6185   55.8641 H   0  0  0  0  0  0  0  0  0  0  0  0
   33.4117   34.2214   56.2714 H   0  0  0  0  0  0  0  0  0  0  0  0
   32.9724   35.5255   51.3259 H   0  0  0  0  0  0  0  0  0  0  0  0
   35.0146   36.8671   52.2854 H   0  0  0  0  0  0  0  0  0  0  0  0
   34.8736   36.5614   54.8531 H   0  0  0  0  0  0  0  0  0  0  0  0
   30.9531   31.9873   60.3811 H   0  0  0  0  0  0  0  0  0  0  0  0
   31.3399   31.9525   58.7466 H   0  0  0  0  0  0  0  0  0  0  0  0
   33.6514   36.2591   62.7423 H   0  0  0  0  0  0  0  0  0  0  0  0
   33.4489   37.5574   64.8205 H   0  0  0  0  0  0  0  0  0  0  0  0
   31.3306   38.6742   65.3789 H   0  0  0  0  0  0  0  0  0  0  0  0
   29.1798   39.1085   64.7599 H   0  0  0  0  0  0  0  0  0  0  0  0
   29.5853   37.2061   61.7665 H   0  0  0  0  0  0  0  0  0  0  0  0
  1  2  3  0  0  0  0
  2  3  1  0  0  0  0
  3 18  2  0  0  0  0
  3  4  1  0  0  0  0
  4  5  1  0  0  0  0
  4 12  2  0  0  0  0
  5  6  1  0  0  0  0
  6  7  1  0  0  0  0
  6 26  1  0  0  0  0
  6 27  1  0  0  0  0
  7 11  1  0  0  0  0
  7  8  2  0  0  0  0
  8  9  1  0  0  0  0
  9 10  2  0  0  0  0
  9 28  1  0  0  0  0
 10 11  1  0  0  0  0
 10 29  1  0  0  0  0
 11 30  1  0  0  0  0
 12 13  1  0  0  0  0
 13 14  1  0  0  0  0
 13 15  2  0  0  0  0
 14 31  1  0  0  0  0
 14 32  1  0  0  0  0
 15 16  1  0  0  0  0
 15 18  1  0  0  0  0
 16 17  3  0  0  0  0
 18 19  1  0  0  0  0
 19 25  2  0  0  0  0
 19 20  1  0  0  0  0
 20 21  2  0  0  0  0
 20 33  1  0  0  0  0
 21 22  1  0  0  0  0
 21 34  1  0  0  0  0
 22 23  2  0  0  0  0
 22 35  1  0  0  0  0
 23 24  1  0  0  0  0
 23 25  1  0  0  0  0
 24 36  1  0  0  0  0
 25 37  1  0  0  0  0
M  END
$$$$
