CHEMBL162666      none
 OpenBabel11202420153D

 55 56  0  0  0  0  0  0  0  0999 V2000
   30.2339   32.7460   63.6032 C   0  0  0  0  0  0  0  0  0  0  0  0
   30.7977   33.8858   62.7522 C   0  0  0  0  0  0  0  0  0  0  0  0
   31.8119   33.3235   61.7541 C   0  0  0  0  0  0  0  0  0  0  0  0
   32.3470   34.4050   60.9465 O   0  0  0  0  0  0  0  0  0  0  0  0
   31.6934   34.6975   59.8051 C   0  0  0  0  0  0  0  0  0  0  0  0
   30.7034   34.0661   59.4931 O   0  0  0  0  0  0  0  0  0  0  0  0
   32.1797   35.7845   58.9344 C   0  0  0  0  0  0  0  0  0  0  0  0
   32.5585   35.5221   57.6165 C   0  0  0  0  0  0  0  0  0  0  0  0
   32.4803   34.1269   57.0525 C   0  0  0  0  0  0  0  0  0  0  0  0
   33.8045   33.4017   57.3002 C   0  0  0  0  0  0  0  0  0  0  0  0
   34.0550   33.3340   58.7055 O   0  0  0  0  0  0  0  0  0  0  0  0
   33.0120   36.5883   56.8338 C   0  0  0  0  0  0  0  0  0  0  0  0
   33.4243   36.3643   55.4330 C   0  0  0  0  0  0  0  0  0  0  0  0
   34.5803   36.0875   55.1763 O   0  0  0  0  0  0  0  0  0  0  0  0
   32.2411   36.4982   54.1343 S   0  0  0  0  0  0  0  0  0  0  0  0
   33.2956   36.1318   52.7095 C   0  0  0  0  0  0  0  0  0  0  0  0
   32.4609   36.1913   51.4286 C   0  0  0  0  0  0  0  0  0  0  0  0
   33.0701   37.8688   57.3918 C   0  0  0  0  0  0  0  0  0  0  0  0
   33.5579   39.0219   56.5532 C   0  0  0  0  0  0  0  0  0  0  0  0
   33.5279   40.3059   57.3846 C   0  0  0  0  0  0  0  0  0  0  0  0
   32.7059   38.0829   58.6374 N   0  0  0  0  0  0  0  0  0  0  0  0
   32.2691   37.1039   59.4188 C   0  0  0  0  0  0  0  0  0  0  0  0
   31.8661   37.4023   60.8115 C   0  0  0  0  0  0  0  0  0  0  0  0
   30.5488   37.7622   61.0978 C   0  0  0  0  0  0  0  0  0  0  0  0
   30.1780   38.0326   62.3988 C   0  0  0  0  0  0  0  0  0  0  0  0
   31.1121   37.9611   63.4167 C   0  0  0  0  0  0  0  0  0  0  0  0
   32.4215   37.6099   63.1386 C   0  0  0  0  0  0  0  0  0  0  0  0
   32.8034   37.3306   61.8426 C   0  0  0  0  0  0  0  0  0  0  0  0
   31.0460   32.2610   64.1446 H   0  0  0  0  0  0  0  0  0  0  0  0
   29.5113   33.1466   64.3143 H   0  0  0  0  0  0  0  0  0  0  0  0
   29.7427   32.0187   62.9568 H   0  0  0  0  0  0  0  0  0  0  0  0
   31.2890   34.6131   63.3986 H   0  0  0  0  0  0  0  0  0  0  0  0
   29.9856   34.3709   62.2108 H   0  0  0  0  0  0  0  0  0  0  0  0
   31.3207   32.5962   61.1076 H   0  0  0  0  0  0  0  0  0  0  0  0
   32.6239   32.8382   62.2956 H   0  0  0  0  0  0  0  0  0  0  0  0
   31.6713   33.5828   57.5400 H   0  0  0  0  0  0  0  0  0  0  0  0
   32.2893   34.1784   55.9807 H   0  0  0  0  0  0  0  0  0  0  0  0
   33.7479   32.3924   56.8923 H   0  0  0  0  0  0  0  0  0  0  0  0
   34.6135   33.9458   56.8128 H   0  0  0  0  0  0  0  0  0  0  0  0
   33.3738   32.8624   59.2042 H   0  0  0  0  0  0  0  0  0  0  0  0
   34.0992   36.8661   52.6540 H   0  0  0  0  0  0  0  0  0  0  0  0
   33.7215   35.1346   52.8197 H   0  0  0  0  0  0  0  0  0  0  0  0
   31.6572   35.4570   51.4842 H   0  0  0  0  0  0  0  0  0  0  0  0
   32.0348   37.1885   51.3185 H   0  0  0  0  0  0  0  0  0  0  0  0
   33.0959   35.9707   50.5706 H   0  0  0  0  0  0  0  0  0  0  0  0
   34.5784   38.8259   56.2241 H   0  0  0  0  0  0  0  0  0  0  0  0
   32.9116   39.1374   55.6831 H   0  0  0  0  0  0  0  0  0  0  0  0
   33.8807   41.1399   56.7781 H   0  0  0  0  0  0  0  0  0  0  0  0
   32.5074   40.5020   57.7136 H   0  0  0  0  0  0  0  0  0  0  0  0
   34.1742   40.1904   58.2547 H   0  0  0  0  0  0  0  0  0  0  0  0
   29.8198   37.8238   60.3034 H   0  0  0  0  0  0  0  0  0  0  0  0
   29.1574   38.3061   62.6225 H   0  0  0  0  0  0  0  0  0  0  0  0
   30.8176   38.1777   64.4329 H   0  0  0  0  0  0  0  0  0  0  0  0
   33.1459   37.5547   63.9377 H   0  0  0  0  0  0  0  0  0  0  0  0
   33.8254   37.0567   61.6267 H   0  0  0  0  0  0  0  0  0  0  0  0
  1  2  1  0  0  0  0
  1 29  1  0  0  0  0
  1 30  1  0  0  0  0
  1 31  1  0  0  0  0
  2  3  1  0  0  0  0
  2 32  1  0  0  0  0
  2 33  1  0  0  0  0
  3  4  1  0  0  0  0
  3 34  1  0  0  0  0
  3 35  1  0  0  0  0
  4  5  1  0  0  0  0
  5  6  2  0  0  0  0
  5  7  1  0  0  0  0
  7 22  2  0  0  0  0
  7  8  1  0  0  0  0
  8  9  1  0  0  0  0
  8 12  2  0  0  0  0
  9 10  1  0  0  0  0
  9 36  1  0  0  0  0
  9 37  1  0  0  0  0
 10 11  1  0  0  0  0
 10 38  1  0  0  0  0
 10 39  1  0  0  0  0
 11 40  1  0  0  0  0
 12 13  1  0  0  0  0
 12 18  1  0  0  0  0
 13 14  2  0  0  0  0
 13 15  1  0  0  0  0
 15 16  1  0  0  0  0
 16 17  1  0  0  0  0
 16 41  1  0  0  0  0
 16 42  1  0  0  0  0
 17 43  1  0  0  0  0
 17 44  1  0  0  0  0
 17 45  1  0  0  0  0
 18 19  1  0  0  0  0
 18 21  2  0  0  0  0
 19 20  1  0  0  0  0
 19 46  1  0  0  0  0
 19 47  1  0  0  0  0
 20 48  1  0  0  0  0
 20 49  1  0  0  0  0
 20 50  1  0  0  0  0
 21 22  1  0  0  0  0
 22 23  1  0  0  0  0
 23 28  2  0  0  0  0
 23 24  1  0  0  0  0
 24 25  2  0  0  0  0
 24 51  1  0  0  0  0
 25 26  1  0  0  0  0
 25 52  1  0  0  0  0
 26 27  2  0  0  0  0
 26 53  1  0  0  0  0
 27 28  1  0  0  0  0
 27 54  1  0  0  0  0
 28 55  1  0  0  0  0
M  END
$$$$
