CHEMBL369070      none
 OpenBabel11202420153D

 50 54  0  0  1  0  0  0  0  0999 V2000
   33.5858   40.7151   58.7586 N   0  0  0  0  0  0  0  0  0  0  0  0
   33.3955   39.4564   58.2517 C   0  0  0  0  0  0  0  0  0  0  0  0
   32.8417   38.5153   58.9947 N   0  0  0  0  0  0  0  0  0  0  0  0
   32.6524   37.2859   58.5077 C   0  0  0  0  0  0  0  0  0  0  0  0
   32.0716   36.3230   59.3068 N   0  0  0  0  0  0  0  0  0  0  0  0
   31.6687   36.6530   60.6761 C   0  0  0  0  0  0  0  0  0  0  0  0
   31.0562   35.4178   61.3393 C   0  0  1  0  0  0  0  0  0  0  0  0
   30.1823   35.0895   60.7767 H   0  0  0  0  0  0  0  0  0  0  0  0
   32.0970   34.2845   61.4000 C   0  0  0  0  0  0  0  0  0  0  0  0
   32.2531   33.9598   62.9034 C   0  0  0  0  0  0  0  0  0  0  0  0
   30.9319   34.4930   63.5121 C   0  0  0  0  0  0  0  0  0  0  0  0
   30.6700   35.7329   62.7318 N   0  0  0  0  0  0  0  0  0  0  0  0
   29.2553   36.1209   62.8108 C   0  0  0  0  0  0  0  0  0  0  0  0
   29.0152   36.8875   64.0858 C   0  0  0  0  0  0  0  0  0  0  0  0
   29.1464   38.2673   64.1105 C   0  0  0  0  0  0  0  0  0  0  0  0
   28.9152   38.9310   65.3059 C   0  0  0  0  0  0  0  0  0  0  0  0
   28.5643   38.2003   66.4249 C   0  0  0  0  0  0  0  0  0  0  0  0
   28.4491   36.8878   66.3646 N   0  0  0  0  0  0  0  0  0  0  0  0
   28.6557   36.2243   65.2440 C   0  0  0  0  0  0  0  0  0  0  0  0
   33.0121   36.9746   57.2732 N   0  0  0  0  0  0  0  0  0  0  0  0
   33.5777   37.8994   56.4842 C   0  0  0  0  0  0  0  0  0  0  0  0
   34.0281   37.8792   55.2406 N   0  0  0  0  0  0  0  0  0  0  0  0
   34.5082   39.0864   54.9162 C   0  0  0  0  0  0  0  0  0  0  0  0
   35.0968   39.4498   53.6102 C   0  0  0  0  0  0  0  0  0  0  0  0
   35.2361   38.6228   52.5402 C   0  0  0  0  0  0  0  0  0  0  0  0
   35.8411   39.3804   51.5178 C   0  0  0  0  0  0  0  0  0  0  0  0
   36.0389   40.6195   52.0092 C   0  0  0  0  0  0  0  0  0  0  0  0
   35.5829   40.6594   53.2713 O   0  0  0  0  0  0  0  0  0  0  0  0
   34.3739   39.9007   55.9460 N   0  0  0  0  0  0  0  0  0  0  0  0
   33.7758   39.1637   56.9745 N   0  0  0  0  0  0  0  0  0  0  0  0
   33.3134   40.9184   59.6672 H   0  0  0  0  0  0  0  0  0  0  0  0
   33.9930   41.4030   58.2090 H   0  0  0  0  0  0  0  0  0  0  0  0
   31.9299   35.4274   58.9620 H   0  0  0  0  0  0  0  0  0  0  0  0
   32.5416   36.9751   61.2440 H   0  0  0  0  0  0  0  0  0  0  0  0
   30.9325   37.4566   60.6546 H   0  0  0  0  0  0  0  0  0  0  0  0
   31.7356   33.4095   60.8596 H   0  0  0  0  0  0  0  0  0  0  0  0
   33.0471   34.6207   60.9849 H   0  0  0  0  0  0  0  0  0  0  0  0
   32.3429   32.8846   63.0586 H   0  0  0  0  0  0  0  0  0  0  0  0
   33.1128   34.4817   63.3235 H   0  0  0  0  0  0  0  0  0  0  0  0
   30.1250   33.7742   63.3696 H   0  0  0  0  0  0  0  0  0  0  0  0
   31.0601   34.7207   64.5703 H   0  0  0  0  0  0  0  0  0  0  0  0
   29.0026   36.7486   61.9563 H   0  0  0  0  0  0  0  0  0  0  0  0
   28.6322   35.2266   62.8018 H   0  0  0  0  0  0  0  0  0  0  0  0
   29.4218   38.8125   63.2198 H   0  0  0  0  0  0  0  0  0  0  0  0
   29.0080   40.0056   65.3616 H   0  0  0  0  0  0  0  0  0  0  0  0
   28.3826   38.7096   67.3598 H   0  0  0  0  0  0  0  0  0  0  0  0
   28.5474   35.1499   65.2322 H   0  0  0  0  0  0  0  0  0  0  0  0
   34.9401   37.5856   52.4845 H   0  0  0  0  0  0  0  0  0  0  0  0
   36.0978   39.0334   50.5279 H   0  0  0  0  0  0  0  0  0  0  0  0
   36.4856   41.4448   51.4747 H   0  0  0  0  0  0  0  0  0  0  0  0
  1  2  1  0  0  0  0
  1 31  1  0  0  0  0
  1 32  1  0  0  0  0
  2 30  1  0  0  0  0
  2  3  2  0  0  0  0
  3  4  1  0  0  0  0
  4  5  1  0  0  0  0
  4 20  2  0  0  0  0
  5  6  1  0  0  0  0
  5 33  1  0  0  0  0
  6  7  1  0  0  0  0
  6 34  1  0  0  0  0
  6 35  1  0  0  0  0
  7  8  1  6  0  0  0
  7 12  1  0  0  0  0
  7  9  1  0  0  0  0
  9 10  1  0  0  0  0
  9 36  1  0  0  0  0
  9 37  1  0  0  0  0
 10 11  1  0  0  0  0
 10 38  1  0  0  0  0
 10 39  1  0  0  0  0
 11 12  1  0  0  0  0
 11 40  1  0  0  0  0
 11 41  1  0  0  0  0
 12 13  1  0  0  0  0
 13 14  1  0  0  0  0
 13 42  1  0  0  0  0
 13 43  1  0  0  0  0
 14 19  2  0  0  0  0
 14 15  1  0  0  0  0
 15 16  2  0  0  0  0
 15 44  1  0  0  0  0
 16 17  1  0  0  0  0
 16 45  1  0  0  0  0
 17 18  2  0  0  0  0
 17 46  1  0  0  0  0
 18 19  1  0  0  0  0
 19 47  1  0  0  0  0
 20 21  1  0  0  0  0
 21 30  1  0  0  0  0
 21 22  2  0  0  0  0
 22 23  1  0  0  0  0
 23 24  1  0  0  0  0
 23 29  2  0  0  0  0
 24 28  1  0  0  0  0
 24 25  2  0  0  0  0
 25 26  1  0  0  0  0
 25 48  1  0  0  0  0
 26 27  2  0  0  0  0
 26 49  1  0  0  0  0
 27 28  1  0  0  0  0
 27 50  1  0  0  0  0
 29 30  1  0  0  0  0
M  END
$$$$
