CHEMBL325237      none
 OpenBabel11202420153D

 38 41  0  0  0  0  0  0  0  0999 V2000
   31.6321   32.4111   60.3655 N   0  0  0  0  0  0  0  0  0  0  0  0
   31.4347   33.7679   60.5608 C   0  0  0  0  0  0  0  0  0  0  0  0
   30.8473   34.2036   61.7079 C   0  0  0  0  0  0  0  0  0  0  0  0
   30.6432   35.5841   61.9147 C   0  0  0  0  0  0  0  0  0  0  0  0
   30.0113   36.0677   63.1610 C   0  0  0  0  0  0  0  0  0  0  0  0
   28.8873   35.7077   63.4518 O   0  0  0  0  0  0  0  0  0  0  0  0
   30.6816   36.9075   63.9746 N   0  0  0  0  0  0  0  0  0  0  0  0
   30.0463   37.3862   65.2034 C   0  0  0  0  0  0  0  0  0  0  0  0
   30.8214   36.8468   66.4168 C   0  0  0  0  0  0  0  0  0  0  0  0
   32.5504   37.3937   66.2958 S   0  0  0  0  0  0  0  0  0  0  0  0
   33.0314   36.7961   64.6482 C   0  0  0  0  0  0  0  0  0  0  0  0
   32.0347   37.3360   63.6168 C   0  0  0  0  0  0  0  0  0  0  0  0
   31.0469   36.4832   60.9387 C   0  0  0  0  0  0  0  0  0  0  0  0
   31.6498   35.9977   59.7671 C   0  0  0  0  0  0  0  0  0  0  0  0
   32.1270   36.6047   58.6860 N   0  0  0  0  0  0  0  0  0  0  0  0
   32.6064   35.6954   57.8363 C   0  0  0  0  0  0  0  0  0  0  0  0
   33.2191   35.9909   56.5245 C   0  0  0  0  0  0  0  0  0  0  0  0
   33.2004   35.1790   55.4343 C   0  0  0  0  0  0  0  0  0  0  0  0
   33.8959   35.8549   54.4125 C   0  0  0  0  0  0  0  0  0  0  0  0
   34.3090   37.0313   54.9273 C   0  0  0  0  0  0  0  0  0  0  0  0
   35.3008   38.3510   54.0051 Br  0  0  0  0  0  0  0  0  0  0  0  0
   33.8981   37.1096   56.2031 O   0  0  0  0  0  0  0  0  0  0  0  0
   32.4482   34.4878   58.3517 N   0  0  0  0  0  0  0  0  0  0  0  0
   31.8316   34.6519   59.6012 N   0  0  0  0  0  0  0  0  0  0  0  0
   32.0503   32.0945   59.5495 H   0  0  0  0  0  0  0  0  0  0  0  0
   31.3518   31.7775   61.0444 H   0  0  0  0  0  0  0  0  0  0  0  0
   30.5376   33.4929   62.4598 H   0  0  0  0  0  0  0  0  0  0  0  0
   30.0573   38.4761   65.2172 H   0  0  0  0  0  0  0  0  0  0  0  0
   29.0159   37.0330   65.2411 H   0  0  0  0  0  0  0  0  0  0  0  0
   30.7824   35.7576   66.4230 H   0  0  0  0  0  0  0  0  0  0  0  0
   30.3793   37.2336   67.3350 H   0  0  0  0  0  0  0  0  0  0  0  0
   33.0155   35.7063   64.6359 H   0  0  0  0  0  0  0  0  0  0  0  0
   34.0339   37.1498   64.4074 H   0  0  0  0  0  0  0  0  0  0  0  0
   32.2890   36.9502   62.6295 H   0  0  0  0  0  0  0  0  0  0  0  0
   32.0795   38.4249   63.6037 H   0  0  0  0  0  0  0  0  0  0  0  0
   30.8998   37.5439   61.0785 H   0  0  0  0  0  0  0  0  0  0  0  0
   32.7392   34.2049   55.3644 H   0  0  0  0  0  0  0  0  0  0  0  0
   34.0695   35.4970   53.4085 H   0  0  0  0  0  0  0  0  0  0  0  0
  1  2  1  0  0  0  0
  1 25  1  0  0  0  0
  1 26  1  0  0  0  0
  2 24  1  0  0  0  0
  2  3  2  0  0  0  0
  3  4  1  0  0  0  0
  3 27  1  0  0  0  0
  4  5  1  0  0  0  0
  4 13  2  0  0  0  0
  5  6  2  0  0  0  0
  5  7  1  0  0  0  0
  7 12  1  0  0  0  0
  7  8  1  0  0  0  0
  8  9  1  0  0  0  0
  8 28  1  0  0  0  0
  8 29  1  0  0  0  0
  9 10  1  0  0  0  0
  9 30  1  0  0  0  0
  9 31  1  0  0  0  0
 10 11  1  0  0  0  0
 11 12  1  0  0  0  0
 11 32  1  0  0  0  0
 11 33  1  0  0  0  0
 12 34  1  0  0  0  0
 12 35  1  0  0  0  0
 13 14  1  0  0  0  0
 13 36  1  0  0  0  0
 14 24  1  0  0  0  0
 14 15  2  0  0  0  0
 15 16  1  0  0  0  0
 16 17  1  0  0  0  0
 16 23  2  0  0  0  0
 17 22  1  0  0  0  0
 17 18  2  0  0  0  0
 18 19  1  0  0  0  0
 18 37  1  0  0  0  0
 19 20  2  0  0  0  0
 19 38  1  0  0  0  0
 20 21  1  0  0  0  0
 20 22  1  0  0  0  0
 23 24  1  0  0  0  0
M  END
$$$$
