CHEMBL1079801      none
 OpenBabel11202420153D

 30 32  0  0  0  0  0  0  0  0999 V2000
   34.2700   37.9134   54.0198 N   0  0  0  0  0  0  0  0  0  0  0  0
   33.9676   38.1094   55.0971 C   0  0  0  0  0  0  0  0  0  0  0  0
   33.5862   38.3563   56.4551 C   0  0  0  0  0  0  0  0  0  0  0  0
   33.6385   39.6524   56.9855 C   0  0  0  0  0  0  0  0  0  0  0  0
   33.2661   39.8406   58.3012 C   0  0  0  0  0  0  0  0  0  0  0  0
   32.8466   38.7492   59.0596 C   0  0  0  0  0  0  0  0  0  0  0  0
   32.4718   38.9414   60.3850 N   0  0  0  0  0  0  0  0  0  0  0  0
   32.0637   37.8940   61.1286 C   0  0  0  0  0  0  0  0  0  0  0  0
   32.0235   36.7840   60.6420 O   0  0  0  0  0  0  0  0  0  0  0  0
   31.6574   38.1022   62.5647 C   0  0  0  0  0  0  0  0  0  0  0  0
   30.2614   37.6329   62.9792 C   0  0  0  0  0  0  0  0  0  0  0  0
   30.5584   39.1288   62.8464 C   0  0  0  0  0  0  0  0  0  0  0  0
   32.7985   37.5338   58.5401 N   0  0  0  0  0  0  0  0  0  0  0  0
   33.1462   37.3003   57.2797 C   0  0  0  0  0  0  0  0  0  0  0  0
   33.0777   35.9304   56.7422 C   0  0  0  0  0  0  0  0  0  0  0  0
   32.6788   34.8219   57.4261 C   0  0  0  0  0  0  0  0  0  0  0  0
   32.7698   33.7397   56.5315 C   0  0  0  0  0  0  0  0  0  0  0  0
   33.2149   34.2328   55.3575 C   0  0  0  0  0  0  0  0  0  0  0  0
   33.4044   35.5545   55.4898 O   0  0  0  0  0  0  0  0  0  0  0  0
   33.9670   40.4842   56.3800 H   0  0  0  0  0  0  0  0  0  0  0  0
   33.2991   40.8269   58.7399 H   0  0  0  0  0  0  0  0  0  0  0  0
   32.5039   39.8293   60.7743 H   0  0  0  0  0  0  0  0  0  0  0  0
   32.4584   38.0085   63.2983 H   0  0  0  0  0  0  0  0  0  0  0  0
   29.6369   37.1736   62.2130 H   0  0  0  0  0  0  0  0  0  0  0  0
   30.1438   37.2309   63.9854 H   0  0  0  0  0  0  0  0  0  0  0  0
   30.6359   39.7100   63.7652 H   0  0  0  0  0  0  0  0  0  0  0  0
   30.1294   39.6537   61.9928 H   0  0  0  0  0  0  0  0  0  0  0  0
   32.3552   34.7816   58.4557 H   0  0  0  0  0  0  0  0  0  0  0  0
   32.5287   32.7087   56.7446 H   0  0  0  0  0  0  0  0  0  0  0  0
   33.3936   33.6581   54.4607 H   0  0  0  0  0  0  0  0  0  0  0  0
  1  2  3  0  0  0  0
  2  3  1  0  0  0  0
  3 14  2  0  0  0  0
  3  4  1  0  0  0  0
  4  5  2  0  0  0  0
  4 20  1  0  0  0  0
  5  6  1  0  0  0  0
  5 21  1  0  0  0  0
  6  7  1  0  0  0  0
  6 13  2  0  0  0  0
  7  8  1  0  0  0  0
  7 22  1  0  0  0  0
  8  9  2  0  0  0  0
  8 10  1  0  0  0  0
 10 12  1  0  0  0  0
 10 11  1  0  0  0  0
 10 23  1  0  0  0  0
 11 12  1  0  0  0  0
 11 24  1  0  0  0  0
 11 25  1  0  0  0  0
 12 26  1  0  0  0  0
 12 27  1  0  0  0  0
 13 14  1  0  0  0  0
 14 15  1  0  0  0  0
 15 19  1  0  0  0  0
 15 16  2  0  0  0  0
 16 17  1  0  0  0  0
 16 28  1  0  0  0  0
 17 18  2  0  0  0  0
 17 29  1  0  0  0  0
 18 19  1  0  0  0  0
 18 30  1  0  0  0  0
M  END
$$$$
