CHEMBL406298      none
 OpenBabel11202420153D

 22 24  0  0  0  0  0  0  0  0999 V2000
   33.2369   40.8217   59.1046 N   0  0  0  0  0  0  0  0  0  0  0  0
   33.2249   39.6425   58.3753 C   0  0  0  0  0  0  0  0  0  0  0  0
   32.8126   38.5306   58.9672 N   0  0  0  0  0  0  0  0  0  0  0  0
   32.7857   37.3767   58.3019 C   0  0  0  0  0  0  0  0  0  0  0  0
   32.3263   36.1414   58.9622 C   0  0  0  0  0  0  0  0  0  0  0  0
   31.8946   36.0360   60.2494 C   0  0  0  0  0  0  0  0  0  0  0  0
   31.5573   34.6852   60.4543 C   0  0  0  0  0  0  0  0  0  0  0  0
   31.7962   34.0374   59.2955 C   0  0  0  0  0  0  0  0  0  0  0  0
   32.2548   34.9208   58.3955 O   0  0  0  0  0  0  0  0  0  0  0  0
   33.2031   37.3569   56.9568 C   0  0  0  0  0  0  0  0  0  0  0  0
   33.3037   36.0505   55.7854 S   0  0  0  0  0  0  0  0  0  0  0  0
   33.9128   37.1418   54.5523 C   0  0  0  0  0  0  0  0  0  0  0  0
   34.0159   38.3739   55.0253 C   0  0  0  0  0  0  0  0  0  0  0  0
   33.6318   38.5482   56.3644 C   0  0  0  0  0  0  0  0  0  0  0  0
   33.6231   39.6694   57.1206 N   0  0  0  0  0  0  0  0  0  0  0  0
   32.9470   40.8224   60.0303 H   0  0  0  0  0  0  0  0  0  0  0  0
   33.5352   41.6459   58.6891 H   0  0  0  0  0  0  0  0  0  0  0  0
   31.8251   36.8344   60.9733 H   0  0  0  0  0  0  0  0  0  0  0  0
   31.1782   34.2494   61.3669 H   0  0  0  0  0  0  0  0  0  0  0  0
   31.6404   32.9833   59.1199 H   0  0  0  0  0  0  0  0  0  0  0  0
   34.1687   36.8479   53.5451 H   0  0  0  0  0  0  0  0  0  0  0  0
   34.3733   39.1933   54.4193 H   0  0  0  0  0  0  0  0  0  0  0  0
  1  2  1  0  0  0  0
  1 16  1  0  0  0  0
  1 17  1  0  0  0  0
  2 15  2  0  0  0  0
  2  3  1  0  0  0  0
  3  4  2  0  0  0  0
  4  5  1  0  0  0  0
  4 10  1  0  0  0  0
  5  9  1  0  0  0  0
  5  6  2  0  0  0  0
  6  7  1  0  0  0  0
  6 18  1  0  0  0  0
  7  8  2  0  0  0  0
  7 19  1  0  0  0  0
  8  9  1  0  0  0  0
  8 20  1  0  0  0  0
 10 14  2  0  0  0  0
 10 11  1  0  0  0  0
 11 12  1  0  0  0  0
 12 13  2  0  0  0  0
 12 21  1  0  0  0  0
 13 14  1  0  0  0  0
 13 22  1  0  0  0  0
 14 15  1  0  0  0  0
M  END
$$$$
