CHEMBL506250      none
 OpenBabel11202420153D

 28 30  0  0  0  0  0  0  0  0999 V2000
   31.9357   38.6286   61.4286 N   0  0  0  0  0  0  0  0  0  0  0  0
   32.2653   38.4967   60.3494 C   0  0  0  0  0  0  0  0  0  0  0  0
   32.6806   38.3303   58.9891 C   0  0  0  0  0  0  0  0  0  0  0  0
   32.6453   37.0545   58.3761 C   0  0  0  0  0  0  0  0  0  0  0  0
   32.1824   35.8695   59.1202 C   0  0  0  0  0  0  0  0  0  0  0  0
   32.6033   34.5887   58.9262 C   0  0  0  0  0  0  0  0  0  0  0  0
   31.9040   33.7884   59.8487 C   0  0  0  0  0  0  0  0  0  0  0  0
   31.0987   34.6091   60.5540 C   0  0  0  0  0  0  0  0  0  0  0  0
   31.2732   35.8652   60.1147 O   0  0  0  0  0  0  0  0  0  0  0  0
   33.0558   36.9507   57.0459 C   0  0  0  0  0  0  0  0  0  0  0  0
   33.4918   38.0929   56.3776 C   0  0  0  0  0  0  0  0  0  0  0  0
   33.9317   37.9879   54.9738 C   0  0  0  0  0  0  0  0  0  0  0  0
   33.4729   37.0916   54.0572 C   0  0  0  0  0  0  0  0  0  0  0  0
   34.1585   37.3533   52.8564 C   0  0  0  0  0  0  0  0  0  0  0  0
   35.0004   38.3792   53.0969 C   0  0  0  0  0  0  0  0  0  0  0  0
   34.8581   38.7619   54.3751 O   0  0  0  0  0  0  0  0  0  0  0  0
   33.5128   39.2789   56.9833 N   0  0  0  0  0  0  0  0  0  0  0  0
   33.1302   39.4311   58.2387 C   0  0  0  0  0  0  0  0  0  0  0  0
   33.1719   40.6862   58.8206 N   0  0  0  0  0  0  0  0  0  0  0  0
   33.3325   34.2524   58.2041 H   0  0  0  0  0  0  0  0  0  0  0  0
   31.9954   32.7191   59.9695 H   0  0  0  0  0  0  0  0  0  0  0  0
   30.4275   34.3060   61.3440 H   0  0  0  0  0  0  0  0  0  0  0  0
   33.0392   35.9957   56.5419 H   0  0  0  0  0  0  0  0  0  0  0  0
   32.7243   36.3302   54.2192 H   0  0  0  0  0  0  0  0  0  0  0  0
   34.0353   36.8299   51.9197 H   0  0  0  0  0  0  0  0  0  0  0  0
   35.6740   38.8224   52.3784 H   0  0  0  0  0  0  0  0  0  0  0  0
   33.4808   41.4489   58.3071 H   0  0  0  0  0  0  0  0  0  0  0  0
   32.8920   40.8032   59.7420 H   0  0  0  0  0  0  0  0  0  0  0  0
  1  2  3  0  0  0  0
  2  3  1  0  0  0  0
  3 18  2  0  0  0  0
  3  4  1  0  0  0  0
  4  5  1  0  0  0  0
  4 10  2  0  0  0  0
  5  9  1  0  0  0  0
  5  6  2  0  0  0  0
  6  7  1  0  0  0  0
  6 20  1  0  0  0  0
  7  8  2  0  0  0  0
  7 21  1  0  0  0  0
  8  9  1  0  0  0  0
  8 22  1  0  0  0  0
 10 11  1  0  0  0  0
 10 23  1  0  0  0  0
 11 12  1  0  0  0  0
 11 17  2  0  0  0  0
 12 16  1  0  0  0  0
 12 13  2  0  0  0  0
 13 14  1  0  0  0  0
 13 24  1  0  0  0  0
 14 15  2  0  0  0  0
 14 25  1  0  0  0  0
 15 16  1  0  0  0  0
 15 26  1  0  0  0  0
 17 18  1  0  0  0  0
 18 19  1  0  0  0  0
 19 27  1  0  0  0  0
 19 28  1  0  0  0  0
M  END
$$$$
