CHEMBL1093313      none
 OpenBabel11202420153D

 32 35  0  0  0  0  0  0  0  0999 V2000
   33.2175   40.7429   58.8451 N   0  0  0  0  0  0  0  0  0  0  0  0
   33.1316   39.5080   58.2574 C   0  0  0  0  0  0  0  0  0  0  0  0
   33.4700   39.3474   56.9904 N   0  0  0  0  0  0  0  0  0  0  0  0
   33.3936   38.1473   56.4122 C   0  0  0  0  0  0  0  0  0  0  0  0
   33.7520   38.0119   55.1144 O   0  0  0  0  0  0  0  0  0  0  0  0
   33.6632   36.7772   54.5535 C   0  0  0  0  0  0  0  0  0  0  0  0
   34.7486   35.9142   54.5977 C   0  0  0  0  0  0  0  0  0  0  0  0
   34.6540   34.6578   54.0314 C   0  0  0  0  0  0  0  0  0  0  0  0
   33.4825   34.2640   53.4112 C   0  0  0  0  0  0  0  0  0  0  0  0
   32.4013   35.1245   53.3607 C   0  0  0  0  0  0  0  0  0  0  0  0
   32.4889   36.3798   53.9306 C   0  0  0  0  0  0  0  0  0  0  0  0
   32.9697   37.0899   57.0810 N   0  0  0  0  0  0  0  0  0  0  0  0
   32.6106   37.2071   58.3678 C   0  0  0  0  0  0  0  0  0  0  0  0
   32.1602   36.3479   59.2667 N   0  0  0  0  0  0  0  0  0  0  0  0
   31.9481   36.9805   60.4275 C   0  0  0  0  0  0  0  0  0  0  0  0
   31.4453   36.3495   61.6657 C   0  0  0  0  0  0  0  0  0  0  0  0
   30.1404   36.2331   62.0285 C   0  0  0  0  0  0  0  0  0  0  0  0
   30.1223   35.5682   63.2706 C   0  0  0  0  0  0  0  0  0  0  0  0
   31.4043   35.3217   63.6051 C   0  0  0  0  0  0  0  0  0  0  0  0
   32.2007   35.7951   62.6333 O   0  0  0  0  0  0  0  0  0  0  0  0
   32.2589   38.2560   60.2924 N   0  0  0  0  0  0  0  0  0  0  0  0
   32.6901   38.4340   58.9732 N   0  0  0  0  0  0  0  0  0  0  0  0
   32.9639   40.8564   59.7744 H   0  0  0  0  0  0  0  0  0  0  0  0
   33.5358   41.5027   58.3330 H   0  0  0  0  0  0  0  0  0  0  0  0
   35.6651   36.2227   55.0785 H   0  0  0  0  0  0  0  0  0  0  0  0
   35.4972   33.9840   54.0695 H   0  0  0  0  0  0  0  0  0  0  0  0
   33.4121   33.2830   52.9651 H   0  0  0  0  0  0  0  0  0  0  0  0
   31.4874   34.8146   52.8757 H   0  0  0  0  0  0  0  0  0  0  0  0
   31.6441   37.0515   53.8909 H   0  0  0  0  0  0  0  0  0  0  0  0
   29.2830   36.5812   61.4715 H   0  0  0  0  0  0  0  0  0  0  0  0
   29.2469   35.3086   63.8473 H   0  0  0  0  0  0  0  0  0  0  0  0
   31.7360   34.8262   64.5055 H   0  0  0  0  0  0  0  0  0  0  0  0
  1  2  1  0  0  0  0
  1 23  1  0  0  0  0
  1 24  1  0  0  0  0
  2 22  1  0  0  0  0
  2  3  2  0  0  0  0
  3  4  1  0  0  0  0
  4  5  1  0  0  0  0
  4 12  2  0  0  0  0
  5  6  1  0  0  0  0
  6 11  2  0  0  0  0
  6  7  1  0  0  0  0
  7  8  2  0  0  0  0
  7 25  1  0  0  0  0
  8  9  1  0  0  0  0
  8 26  1  0  0  0  0
  9 10  2  0  0  0  0
  9 27  1  0  0  0  0
 10 11  1  0  0  0  0
 10 28  1  0  0  0  0
 11 29  1  0  0  0  0
 12 13  1  0  0  0  0
 13 22  1  0  0  0  0
 13 14  2  0  0  0  0
 14 15  1  0  0  0  0
 15 16  1  0  0  0  0
 15 21  2  0  0  0  0
 16 20  1  0  0  0  0
 16 17  2  0  0  0  0
 17 18  1  0  0  0  0
 17 30  1  0  0  0  0
 18 19  2  0  0  0  0
 18 31  1  0  0  0  0
 19 20  1  0  0  0  0
 19 32  1  0  0  0  0
 21 22  1  0  0  0  0
M  END
$$$$
