CHEMBL303198      none
 OpenBabel11202420153D

 31 34  0  0  0  0  0  0  0  0999 V2000
   32.5128   38.6073   60.2269 N   0  0  0  0  0  0  0  0  0  0  0  0
   32.8795   38.2358   58.9469 C   0  0  0  0  0  0  0  0  0  0  0  0
   33.2860   39.1443   58.0890 N   0  0  0  0  0  0  0  0  0  0  0  0
   33.6530   38.8097   56.8257 C   0  0  0  0  0  0  0  0  0  0  0  0
   34.0815   39.8035   55.9367 C   0  0  0  0  0  0  0  0  0  0  0  0
   34.4546   39.4660   54.6560 C   0  0  0  0  0  0  0  0  0  0  0  0
   34.4091   38.1439   54.2360 C   0  0  0  0  0  0  0  0  0  0  0  0
   34.8833   37.7360   52.6167 Cl  0  0  0  0  0  0  0  0  0  0  0  0
   33.9892   37.1515   55.0987 C   0  0  0  0  0  0  0  0  0  0  0  0
   33.6086   37.4720   56.3952 C   0  0  0  0  0  0  0  0  0  0  0  0
   33.1908   36.4838   57.2691 N   0  0  0  0  0  0  0  0  0  0  0  0
   33.0279   35.1358   57.1812 C   0  0  0  0  0  0  0  0  0  0  0  0
   33.2996   34.2942   55.9970 C   0  0  0  0  0  0  0  0  0  0  0  0
   32.2926   34.0561   55.0601 C   0  0  0  0  0  0  0  0  0  0  0  0
   32.5531   33.2701   53.9568 C   0  0  0  0  0  0  0  0  0  0  0  0
   33.8090   32.7179   53.7778 C   0  0  0  0  0  0  0  0  0  0  0  0
   34.8115   32.9494   54.7029 C   0  0  0  0  0  0  0  0  0  0  0  0
   34.5643   33.7334   55.8109 C   0  0  0  0  0  0  0  0  0  0  0  0
   32.5869   34.7196   58.3546 N   0  0  0  0  0  0  0  0  0  0  0  0
   32.4622   35.7178   59.1578 N   0  0  0  0  0  0  0  0  0  0  0  0
   32.8159   36.8291   58.5451 C   0  0  0  0  0  0  0  0  0  0  0  0
   32.2131   37.9360   60.8598 H   0  0  0  0  0  0  0  0  0  0  0  0
   32.5552   39.5394   60.4923 H   0  0  0  0  0  0  0  0  0  0  0  0
   34.1197   40.8345   56.2564 H   0  0  0  0  0  0  0  0  0  0  0  0
   34.7843   40.2347   53.9729 H   0  0  0  0  0  0  0  0  0  0  0  0
   33.9563   36.1247   54.7650 H   0  0  0  0  0  0  0  0  0  0  0  0
   31.3131   34.4903   55.1964 H   0  0  0  0  0  0  0  0  0  0  0  0
   31.7747   33.0850   53.2313 H   0  0  0  0  0  0  0  0  0  0  0  0
   34.0077   32.1032   52.9124 H   0  0  0  0  0  0  0  0  0  0  0  0
   35.7897   32.5152   54.5574 H   0  0  0  0  0  0  0  0  0  0  0  0
   35.3475   33.9127   56.5325 H   0  0  0  0  0  0  0  0  0  0  0  0
  1  2  1  0  0  0  0
  1 22  1  0  0  0  0
  1 23  1  0  0  0  0
  2 21  1  0  0  0  0
  2  3  2  0  0  0  0
  3  4  1  0  0  0  0
  4 10  2  0  0  0  0
  4  5  1  0  0  0  0
  5  6  2  0  0  0  0
  5 24  1  0  0  0  0
  6  7  1  0  0  0  0
  6 25  1  0  0  0  0
  7  8  1  0  0  0  0
  7  9  2  0  0  0  0
  9 10  1  0  0  0  0
  9 26  1  0  0  0  0
 10 11  1  0  0  0  0
 11 21  1  0  0  0  0
 11 12  1  0  0  0  0
 12 13  1  0  0  0  0
 12 19  2  0  0  0  0
 13 18  2  0  0  0  0
 13 14  1  0  0  0  0
 14 15  2  0  0  0  0
 14 27  1  0  0  0  0
 15 16  1  0  0  0  0
 15 28  1  0  0  0  0
 16 17  2  0  0  0  0
 16 29  1  0  0  0  0
 17 18  1  0  0  0  0
 17 30  1  0  0  0  0
 18 31  1  0  0  0  0
 19 20  1  0  0  0  0
 20 21  2  0  0  0  0
M  END
$$$$
