CHEMBL209366      none
 OpenBabel11202420153D

 49 52  0  0  0  0  0  0  0  0999 V2000
   35.1820   35.9104   54.4553 C   0  0  0  0  0  0  0  0  0  0  0  0
   35.2809   37.2393   53.7037 C   0  0  0  0  0  0  0  0  0  0  0  0
   33.9806   38.0252   53.8840 C   0  0  0  0  0  0  0  0  0  0  0  0
   33.7609   38.2854   55.3089 N   0  0  0  0  0  0  0  0  0  0  0  0
   34.2551   39.4055   55.8614 C   0  0  0  0  0  0  0  0  0  0  0  0
   34.8767   40.1803   55.1601 O   0  0  0  0  0  0  0  0  0  0  0  0
   34.0867   39.7009   57.1622 N   0  0  0  0  0  0  0  0  0  0  0  0
   33.3911   38.8538   57.9929 C   0  0  0  0  0  0  0  0  0  0  0  0
   32.8582   37.6788   57.4710 C   0  0  0  0  0  0  0  0  0  0  0  0
   32.2303   37.0321   58.4779 N   0  0  0  0  0  0  0  0  0  0  0  0
   32.3463   37.7362   59.5776 C   0  0  0  0  0  0  0  0  0  0  0  0
   31.7917   37.3618   60.8966 C   0  0  0  0  0  0  0  0  0  0  0  0
   32.6407   37.1910   61.9908 C   0  0  0  0  0  0  0  0  0  0  0  0
   32.1175   36.8371   63.2173 C   0  0  0  0  0  0  0  0  0  0  0  0
   30.7532   36.6615   63.3662 C   0  0  0  0  0  0  0  0  0  0  0  0
   30.0924   36.2162   64.9377 S   0  0  0  0  0  0  0  0  0  0  0  0
   28.8441   35.5863   64.6842 O   0  0  0  0  0  0  0  0  0  0  0  0
   31.1478   35.5895   65.6538 O   0  0  0  0  0  0  0  0  0  0  0  0
   29.7517   37.6227   65.7427 N   0  0  0  0  0  0  0  0  0  0  0  0
   30.7228   38.2173   66.5513 C   0  0  0  0  0  0  0  0  0  0  0  0
   30.8077   37.8835   67.8971 C   0  0  0  0  0  0  0  0  0  0  0  0
   31.7723   38.4699   68.6927 C   0  0  0  0  0  0  0  0  0  0  0  0
   32.6462   39.3962   68.1536 C   0  0  0  0  0  0  0  0  0  0  0  0
   32.5611   39.7346   66.8156 C   0  0  0  0  0  0  0  0  0  0  0  0
   31.6022   39.1482   66.0130 C   0  0  0  0  0  0  0  0  0  0  0  0
   29.9056   36.8336   62.2864 C   0  0  0  0  0  0  0  0  0  0  0  0
   30.4166   37.1828   61.0533 C   0  0  0  0  0  0  0  0  0  0  0  0
   33.0586   38.8787   59.3105 N   0  0  0  0  0  0  0  0  0  0  0  0
   33.0643   37.3955   56.0485 C   0  0  0  0  0  0  0  0  0  0  0  0
   32.6178   36.3814   55.5444 O   0  0  0  0  0  0  0  0  0  0  0  0
   34.3487   35.3300   54.0592 H   0  0  0  0  0  0  0  0  0  0  0  0
   36.1084   35.3504   54.3268 H   0  0  0  0  0  0  0  0  0  0  0  0
   35.0184   36.1039   55.5155 H   0  0  0  0  0  0  0  0  0  0  0  0
   35.4445   37.0458   52.6435 H   0  0  0  0  0  0  0  0  0  0  0  0
   36.1142   37.8197   54.0998 H   0  0  0  0  0  0  0  0  0  0  0  0
   33.1474   37.4449   53.4879 H   0  0  0  0  0  0  0  0  0  0  0  0
   34.0512   38.9719   53.3485 H   0  0  0  0  0  0  0  0  0  0  0  0
   34.4608   40.5214   57.5195 H   0  0  0  0  0  0  0  0  0  0  0  0
   33.7054   37.3318   61.8768 H   0  0  0  0  0  0  0  0  0  0  0  0
   32.7738   36.7013   64.0642 H   0  0  0  0  0  0  0  0  0  0  0  0
   28.8776   38.0335   65.6525 H   0  0  0  0  0  0  0  0  0  0  0  0
   30.1228   37.1634   68.3197 H   0  0  0  0  0  0  0  0  0  0  0  0
   31.8416   38.2078   69.7381 H   0  0  0  0  0  0  0  0  0  0  0  0
   33.3967   39.8565   68.7791 H   0  0  0  0  0  0  0  0  0  0  0  0
   33.2448   40.4587   66.3977 H   0  0  0  0  0  0  0  0  0  0  0  0
   31.5360   39.4132   64.9682 H   0  0  0  0  0  0  0  0  0  0  0  0
   28.8416   36.6948   62.4089 H   0  0  0  0  0  0  0  0  0  0  0  0
   29.7540   37.3168   60.2110 H   0  0  0  0  0  0  0  0  0  0  0  0
   33.2852   39.5754   59.9462 H   0  0  0  0  0  0  0  0  0  0  0  0
  1  2  1  0  0  0  0
  1 31  1  0  0  0  0
  1 32  1  0  0  0  0
  1 33  1  0  0  0  0
  2  3  1  0  0  0  0
  2 34  1  0  0  0  0
  2 35  1  0  0  0  0
  3  4  1  0  0  0  0
  3 36  1  0  0  0  0
  3 37  1  0  0  0  0
  4 29  1  0  0  0  0
  4  5  1  0  0  0  0
  5  6  2  0  0  0  0
  5  7  1  0  0  0  0
  7  8  1  0  0  0  0
  7 38  1  0  0  0  0
  8 28  1  0  0  0  0
  8  9  2  0  0  0  0
  9 10  1  0  0  0  0
  9 29  1  0  0  0  0
 10 11  2  0  0  0  0
 11 12  1  0  0  0  0
 11 28  1  0  0  0  0
 12 27  2  0  0  0  0
 12 13  1  0  0  0  0
 13 14  2  0  0  0  0
 13 39  1  0  0  0  0
 14 15  1  0  0  0  0
 14 40  1  0  0  0  0
 15 16  1  0  0  0  0
 15 26  2  0  0  0  0
 16 17  2  0  0  0  0
 16 18  2  0  0  0  0
 16 19  1  0  0  0  0
 19 20  1  0  0  0  0
 19 41  1  0  0  0  0
 20 25  2  0  0  0  0
 20 21  1  0  0  0  0
 21 22  2  0  0  0  0
 21 42  1  0  0  0  0
 22 23  1  0  0  0  0
 22 43  1  0  0  0  0
 23 24  2  0  0  0  0
 23 44  1  0  0  0  0
 24 25  1  0  0  0  0
 24 45  1  0  0  0  0
 25 46  1  0  0  0  0
 26 27  1  0  0  0  0
 26 47  1  0  0  0  0
 27 48  1  0  0  0  0
 28 49  1  0  0  0  0
 29 30  2  0  0  0  0
M  END
$$$$
