CHEMBL369573      none
 OpenBabel11202420153D

 32 35  0  0  0  0  0  0  0  0999 V2000
   31.2060   32.6353   59.2610 N   0  0  0  0  0  0  0  0  0  0  0  0
   31.6267   33.9453   59.1649 C   0  0  0  0  0  0  0  0  0  0  0  0
   31.5046   34.7336   60.2210 N   0  0  0  0  0  0  0  0  0  0  0  0
   31.8975   36.0069   60.1739 C   0  0  0  0  0  0  0  0  0  0  0  0
   31.7591   36.8858   61.3580 C   0  0  0  0  0  0  0  0  0  0  0  0
   30.9806   38.0408   61.2855 C   0  0  0  0  0  0  0  0  0  0  0  0
   30.8554   38.8557   62.3920 C   0  0  0  0  0  0  0  0  0  0  0  0
   31.5005   38.5288   63.5717 C   0  0  0  0  0  0  0  0  0  0  0  0
   32.2741   37.3849   63.6497 C   0  0  0  0  0  0  0  0  0  0  0  0
   32.4066   36.5618   62.5501 C   0  0  0  0  0  0  0  0  0  0  0  0
   32.4395   36.4976   58.9764 C   0  0  0  0  0  0  0  0  0  0  0  0
   32.9596   37.8125   58.5658 C   0  0  0  0  0  0  0  0  0  0  0  0
   33.0212   38.8114   59.2547 O   0  0  0  0  0  0  0  0  0  0  0  0
   33.3945   37.6883   57.1516 C   0  0  0  0  0  0  0  0  0  0  0  0
   33.9544   38.5968   56.2642 C   0  0  0  0  0  0  0  0  0  0  0  0
   34.2681   38.1990   54.9734 C   0  0  0  0  0  0  0  0  0  0  0  0
   34.0254   36.9021   54.5675 C   0  0  0  0  0  0  0  0  0  0  0  0
   33.4662   35.9848   55.4450 C   0  0  0  0  0  0  0  0  0  0  0  0
   33.1582   36.3644   56.7435 C   0  0  0  0  0  0  0  0  0  0  0  0
   32.5559   35.6209   57.8788 C   0  0  0  0  0  0  0  0  0  0  0  0
   32.1399   34.3707   58.0147 N   0  0  0  0  0  0  0  0  0  0  0  0
   30.8286   32.3068   60.0919 H   0  0  0  0  0  0  0  0  0  0  0  0
   31.2875   32.0425   58.4976 H   0  0  0  0  0  0  0  0  0  0  0  0
   30.4732   38.2946   60.3665 H   0  0  0  0  0  0  0  0  0  0  0  0
   30.2529   39.7502   62.3370 H   0  0  0  0  0  0  0  0  0  0  0  0
   31.4001   39.1703   64.4347 H   0  0  0  0  0  0  0  0  0  0  0  0
   32.7756   37.1354   64.5731 H   0  0  0  0  0  0  0  0  0  0  0  0
   33.0111   35.6689   62.6122 H   0  0  0  0  0  0  0  0  0  0  0  0
   34.1452   39.6122   56.5785 H   0  0  0  0  0  0  0  0  0  0  0  0
   34.7035   38.9063   54.2831 H   0  0  0  0  0  0  0  0  0  0  0  0
   34.2721   36.6000   53.5604 H   0  0  0  0  0  0  0  0  0  0  0  0
   33.2792   34.9720   55.1201 H   0  0  0  0  0  0  0  0  0  0  0  0
  1  2  1  0  0  0  0
  1 22  1  0  0  0  0
  1 23  1  0  0  0  0
  2 21  2  0  0  0  0
  2  3  1  0  0  0  0
  3  4  2  0  0  0  0
  4  5  1  0  0  0  0
  4 11  1  0  0  0  0
  5 10  2  0  0  0  0
  5  6  1  0  0  0  0
  6  7  2  0  0  0  0
  6 24  1  0  0  0  0
  7  8  1  0  0  0  0
  7 25  1  0  0  0  0
  8  9  2  0  0  0  0
  8 26  1  0  0  0  0
  9 10  1  0  0  0  0
  9 27  1  0  0  0  0
 10 28  1  0  0  0  0
 11 20  2  0  0  0  0
 11 12  1  0  0  0  0
 12 13  2  0  0  0  0
 12 14  1  0  0  0  0
 14 19  2  0  0  0  0
 14 15  1  0  0  0  0
 15 16  2  0  0  0  0
 15 29  1  0  0  0  0
 16 17  1  0  0  0  0
 16 30  1  0  0  0  0
 17 18  2  0  0  0  0
 17 31  1  0  0  0  0
 18 19  1  0  0  0  0
 18 32  1  0  0  0  0
 19 20  1  0  0  0  0
 20 21  1  0  0  0  0
M  END
$$$$
