CHEMBL181981      none
 OpenBabel11202420153D

 31 34  0  0  0  0  0  0  0  0999 V2000
   33.2467   40.8511   59.1531 N   0  0  0  0  0  0  0  0  0  0  0  0
   33.1514   39.5759   58.6178 C   0  0  0  0  0  0  0  0  0  0  0  0
   32.6896   38.5939   59.3761 N   0  0  0  0  0  0  0  0  0  0  0  0
   32.5843   37.3606   58.8931 C   0  0  0  0  0  0  0  0  0  0  0  0
   32.9684   37.1004   57.5699 C   0  0  0  0  0  0  0  0  0  0  0  0
   32.7725   35.7913   57.3123 O   0  0  0  0  0  0  0  0  0  0  0  0
   32.2754   35.1450   58.3898 C   0  0  0  0  0  0  0  0  0  0  0  0
   32.1269   36.0697   59.4343 C   0  0  0  0  0  0  0  0  0  0  0  0
   31.6284   35.6591   60.6675 C   0  0  0  0  0  0  0  0  0  0  0  0
   31.2808   34.3392   60.8595 C   0  0  0  0  0  0  0  0  0  0  0  0
   31.4228   33.4243   59.8275 C   0  0  0  0  0  0  0  0  0  0  0  0
   31.9199   33.8182   58.6035 C   0  0  0  0  0  0  0  0  0  0  0  0
   33.4523   38.1696   56.8050 C   0  0  0  0  0  0  0  0  0  0  0  0
   33.8754   37.9612   55.3997 C   0  0  0  0  0  0  0  0  0  0  0  0
   34.8745   38.7591   54.8439 C   0  0  0  0  0  0  0  0  0  0  0  0
   35.2678   38.5570   53.5367 C   0  0  0  0  0  0  0  0  0  0  0  0
   34.6653   37.5722   52.7747 C   0  0  0  0  0  0  0  0  0  0  0  0
   33.6693   36.7811   53.3190 C   0  0  0  0  0  0  0  0  0  0  0  0
   33.2718   36.9703   54.6268 C   0  0  0  0  0  0  0  0  0  0  0  0
   33.5258   39.3759   57.3629 N   0  0  0  0  0  0  0  0  0  0  0  0
   33.5836   41.5810   58.6103 H   0  0  0  0  0  0  0  0  0  0  0  0
   32.9765   41.0135   60.0704 H   0  0  0  0  0  0  0  0  0  0  0  0
   31.5143   36.3721   61.4706 H   0  0  0  0  0  0  0  0  0  0  0  0
   30.8940   34.0176   61.8152 H   0  0  0  0  0  0  0  0  0  0  0  0
   31.1445   32.3928   59.9850 H   0  0  0  0  0  0  0  0  0  0  0  0
   32.0290   33.0958   57.8081 H   0  0  0  0  0  0  0  0  0  0  0  0
   35.3427   39.5311   55.4367 H   0  0  0  0  0  0  0  0  0  0  0  0
   36.0447   39.1716   53.1065 H   0  0  0  0  0  0  0  0  0  0  0  0
   34.9733   37.4206   51.7507 H   0  0  0  0  0  0  0  0  0  0  0  0
   33.2026   36.0138   52.7192 H   0  0  0  0  0  0  0  0  0  0  0  0
   32.4947   36.3516   55.0509 H   0  0  0  0  0  0  0  0  0  0  0  0
  1  2  1  0  0  0  0
  1 21  1  0  0  0  0
  1 22  1  0  0  0  0
  2 20  2  0  0  0  0
  2  3  1  0  0  0  0
  3  4  2  0  0  0  0
  4  8  1  0  0  0  0
  4  5  1  0  0  0  0
  5  6  1  0  0  0  0
  5 13  2  0  0  0  0
  6  7  1  0  0  0  0
  7 12  2  0  0  0  0
  7  8  1  0  0  0  0
  8  9  2  0  0  0  0
  9 10  1  0  0  0  0
  9 23  1  0  0  0  0
 10 11  2  0  0  0  0
 10 24  1  0  0  0  0
 11 12  1  0  0  0  0
 11 25  1  0  0  0  0
 12 26  1  0  0  0  0
 13 14  1  0  0  0  0
 13 20  1  0  0  0  0
 14 19  2  0  0  0  0
 14 15  1  0  0  0  0
 15 16  2  0  0  0  0
 15 27  1  0  0  0  0
 16 17  1  0  0  0  0
 16 28  1  0  0  0  0
 17 18  2  0  0  0  0
 17 29  1  0  0  0  0
 18 19  1  0  0  0  0
 18 30  1  0  0  0  0
 19 31  1  0  0  0  0
M  END
$$$$
