CHEMBL408624      none
 OpenBabel11202420153D

 31 33  0  0  0  0  0  0  0  0999 V2000
   32.8497   33.6465   56.1539 C   0  0  0  0  0  0  0  0  0  0  0  0
   32.4310   33.8579   57.6103 C   0  0  0  0  0  0  0  0  0  0  0  0
   32.6037   35.3093   57.9770 C   0  0  0  0  0  0  0  0  0  0  0  0
   32.2931   35.6952   59.1998 N   0  0  0  0  0  0  0  0  0  0  0  0
   32.4283   36.9650   59.5692 C   0  0  0  0  0  0  0  0  0  0  0  0
   32.0770   37.3922   60.9449 C   0  0  0  0  0  0  0  0  0  0  0  0
   31.0887   38.3548   61.1381 C   0  0  0  0  0  0  0  0  0  0  0  0
   30.7718   38.7441   62.4288 C   0  0  0  0  0  0  0  0  0  0  0  0
   31.4545   38.1569   63.4838 C   0  0  0  0  0  0  0  0  0  0  0  0
   32.4251   37.2068   63.2190 C   0  0  0  0  0  0  0  0  0  0  0  0
   33.1692   36.5658   64.3620 C   0  0  0  0  0  0  0  0  0  0  0  0
   32.7069   36.8547   61.9820 N   0  0  0  0  0  0  0  0  0  0  0  0
   32.9049   37.8965   58.6306 C   0  0  0  0  0  0  0  0  0  0  0  0
   33.2151   39.6209   58.7536 S   0  0  0  0  0  0  0  0  0  0  0  0
   33.7598   39.7079   57.0888 C   0  0  0  0  0  0  0  0  0  0  0  0
   33.7096   38.5232   56.5030 C   0  0  0  0  0  0  0  0  0  0  0  0
   33.2290   37.4474   57.3441 C   0  0  0  0  0  0  0  0  0  0  0  0
   33.0562   36.1387   57.0686 N   0  0  0  0  0  0  0  0  0  0  0  0
   33.8950   33.9303   56.0316 H   0  0  0  0  0  0  0  0  0  0  0  0
   32.7247   32.5967   55.8887 H   0  0  0  0  0  0  0  0  0  0  0  0
   32.2276   34.2620   55.5041 H   0  0  0  0  0  0  0  0  0  0  0  0
   33.0530   33.2424   58.2602 H   0  0  0  0  0  0  0  0  0  0  0  0
   31.3857   33.5740   57.7327 H   0  0  0  0  0  0  0  0  0  0  0  0
   30.5765   38.7911   60.2932 H   0  0  0  0  0  0  0  0  0  0  0  0
   30.0099   39.4877   62.6099 H   0  0  0  0  0  0  0  0  0  0  0  0
   31.2311   38.4390   64.5021 H   0  0  0  0  0  0  0  0  0  0  0  0
   34.0603   37.1511   64.5892 H   0  0  0  0  0  0  0  0  0  0  0  0
   32.5247   36.5295   65.2403 H   0  0  0  0  0  0  0  0  0  0  0  0
   33.4610   35.5533   64.0833 H   0  0  0  0  0  0  0  0  0  0  0  0
   34.0931   40.6134   56.6038 H   0  0  0  0  0  0  0  0  0  0  0  0
   34.0043   38.3702   55.4753 H   0  0  0  0  0  0  0  0  0  0  0  0
  1  2  1  0  0  0  0
  1 19  1  0  0  0  0
  1 20  1  0  0  0  0
  1 21  1  0  0  0  0
  2  3  1  0  0  0  0
  2 22  1  0  0  0  0
  2 23  1  0  0  0  0
  3 18  2  0  0  0  0
  3  4  1  0  0  0  0
  4  5  2  0  0  0  0
  5  6  1  0  0  0  0
  5 13  1  0  0  0  0
  6 12  2  0  0  0  0
  6  7  1  0  0  0  0
  7  8  2  0  0  0  0
  7 24  1  0  0  0  0
  8  9  1  0  0  0  0
  8 25  1  0  0  0  0
  9 10  2  0  0  0  0
  9 26  1  0  0  0  0
 10 11  1  0  0  0  0
 10 12  1  0  0  0  0
 11 27  1  0  0  0  0
 11 28  1  0  0  0  0
 11 29  1  0  0  0  0
 13 17  2  0  0  0  0
 13 14  1  0  0  0  0
 14 15  1  0  0  0  0
 15 16  2  0  0  0  0
 15 30  1  0  0  0  0
 16 17  1  0  0  0  0
 16 31  1  0  0  0  0
 17 18  1  0  0  0  0
M  END
$$$$
