CHEMBL1170519      none
 OpenBabel11202420153D

 43 45  0  0  0  0  0  0  0  0999 V2000
   30.0956   40.0734   65.5120 C   0  0  0  0  0  0  0  0  0  0  0  0
   30.2955   39.0952   66.6712 C   0  0  0  0  0  0  0  0  0  0  0  0
   30.9677   37.8889   66.1820 N   0  0  0  0  0  0  0  0  0  0  0  0
   32.3137   37.8185   66.1869 C   0  0  0  0  0  0  0  0  0  0  0  0
   33.0051   36.5777   65.6837 C   0  0  0  0  0  0  0  0  0  0  0  0
   32.9684   38.7539   66.5965 O   0  0  0  0  0  0  0  0  0  0  0  0
   30.2109   36.8077   65.7085 C   0  0  0  0  0  0  0  0  0  0  0  0
   30.3690   36.3700   64.3893 C   0  0  0  0  0  0  0  0  0  0  0  0
   31.4128   36.9482   63.0928 S   0  0  0  0  0  0  0  0  0  0  0  0
   30.7742   35.7176   62.0117 C   0  0  0  0  0  0  0  0  0  0  0  0
   31.1634   35.5429   60.6938 N   0  0  0  0  0  0  0  0  0  0  0  0
   32.0975   36.3509   60.1544 C   0  0  0  0  0  0  0  0  0  0  0  0
   32.5987   37.2333   60.8246 O   0  0  0  0  0  0  0  0  0  0  0  0
   32.5113   36.1652   58.7538 C   0  0  0  0  0  0  0  0  0  0  0  0
   33.0081   37.1202   57.9096 C   0  0  0  0  0  0  0  0  0  0  0  0
   33.2627   36.5443   56.7194 N   0  0  0  0  0  0  0  0  0  0  0  0
   32.9429   35.2183   56.7570 C   0  0  0  0  0  0  0  0  0  0  0  0
   32.4801   34.9172   57.9832 C   0  0  0  0  0  0  0  0  0  0  0  0
   29.8930   35.0019   62.6194 N   0  0  0  0  0  0  0  0  0  0  0  0
   29.6207   35.2952   63.9071 C   0  0  0  0  0  0  0  0  0  0  0  0
   28.7045   34.6655   64.7836 C   0  0  0  0  0  0  0  0  0  0  0  0
   27.9611   33.6154   64.3426 O   0  0  0  0  0  0  0  0  0  0  0  0
   28.5192   32.3104   64.5083 C   0  0  0  0  0  0  0  0  0  0  0  0
   28.5567   35.1117   66.0769 C   0  0  0  0  0  0  0  0  0  0  0  0
   29.3100   36.1774   66.5466 C   0  0  0  0  0  0  0  0  0  0  0  0
   29.5954   40.9709   65.8761 H   0  0  0  0  0  0  0  0  0  0  0  0
   31.0650   40.3426   65.0924 H   0  0  0  0  0  0  0  0  0  0  0  0
   29.4840   39.6038   64.7417 H   0  0  0  0  0  0  0  0  0  0  0  0
   29.3261   38.8260   67.0908 H   0  0  0  0  0  0  0  0  0  0  0  0
   30.9071   39.5648   67.4417 H   0  0  0  0  0  0  0  0  0  0  0  0
   32.2591   35.8520   65.3598 H   0  0  0  0  0  0  0  0  0  0  0  0
   33.6493   36.8363   64.8432 H   0  0  0  0  0  0  0  0  0  0  0  0
   33.6072   36.1473   66.4840 H   0  0  0  0  0  0  0  0  0  0  0  0
   30.7637   34.8391   60.1593 H   0  0  0  0  0  0  0  0  0  0  0  0
   33.1690   38.1594   58.1561 H   0  0  0  0  0  0  0  0  0  0  0  0
   33.6221   37.0061   55.9458 H   0  0  0  0  0  0  0  0  0  0  0  0
   33.0495   34.5230   55.9375 H   0  0  0  0  0  0  0  0  0  0  0  0
   32.1490   33.9498   58.3308 H   0  0  0  0  0  0  0  0  0  0  0  0
   27.8262   31.5662   64.1158 H   0  0  0  0  0  0  0  0  0  0  0  0
   29.4638   32.2478   63.9681 H   0  0  0  0  0  0  0  0  0  0  0  0
   28.6933   32.1215   65.5677 H   0  0  0  0  0  0  0  0  0  0  0  0
   27.8506   34.6251   66.7334 H   0  0  0  0  0  0  0  0  0  0  0  0
   29.1898   36.5171   67.5646 H   0  0  0  0  0  0  0  0  0  0  0  0
  1  2  1  0  0  0  0
  1 26  1  0  0  0  0
  1 27  1  0  0  0  0
  1 28  1  0  0  0  0
  2  3  1  0  0  0  0
  2 29  1  0  0  0  0
  2 30  1  0  0  0  0
  3  4  1  0  0  0  0
  3  7  1  0  0  0  0
  4  5  1  0  0  0  0
  4  6  2  0  0  0  0
  5 31  1  0  0  0  0
  5 32  1  0  0  0  0
  5 33  1  0  0  0  0
  7 25  2  0  0  0  0
  7  8  1  0  0  0  0
  8 20  2  0  0  0  0
  8  9  1  0  0  0  0
  9 10  1  0  0  0  0
 10 11  1  0  0  0  0
 10 19  2  0  0  0  0
 11 12  1  0  0  0  0
 11 34  1  0  0  0  0
 12 13  2  0  0  0  0
 12 14  1  0  0  0  0
 14 18  1  0  0  0  0
 14 15  2  0  0  0  0
 15 16  1  0  0  0  0
 15 35  1  0  0  0  0
 16 17  1  0  0  0  0
 16 36  1  0  0  0  0
 17 18  2  0  0  0  0
 17 37  1  0  0  0  0
 18 38  1  0  0  0  0
 19 20  1  0  0  0  0
 20 21  1  0  0  0  0
 21 22  1  0  0  0  0
 21 24  2  0  0  0  0
 22 23  1  0  0  0  0
 23 39  1  0  0  0  0
 23 40  1  0  0  0  0
 23 41  1  0  0  0  0
 24 25  1  0  0  0  0
 24 42  1  0  0  0  0
 25 43  1  0  0  0  0
M  END
$$$$
