CHEMBL515992      none
 OpenBabel11202420153D

 41 43  0  0  0  0  0  0  0  0999 V2000
   28.6760   31.0786   65.9581 C   0  0  0  0  0  0  0  0  0  0  0  0
   29.2234   32.2788   65.2297 C   0  0  0  0  0  0  0  0  0  0  0  0
   29.5426   32.1868   64.0634 O   0  0  0  0  0  0  0  0  0  0  0  0
   29.3582   33.4547   65.8745 N   0  0  0  0  0  0  0  0  0  0  0  0
   29.8634   34.5626   65.2020 C   0  0  0  0  0  0  0  0  0  0  0  0
   30.0067   35.7809   65.8585 C   0  0  0  0  0  0  0  0  0  0  0  0
   30.5169   36.8612   65.1448 C   0  0  0  0  0  0  0  0  0  0  0  0
   30.6787   38.0988   65.7588 N   0  0  0  0  0  0  0  0  0  0  0  0
   31.2014   39.2943   65.0872 C   0  0  0  0  0  0  0  0  0  0  0  0
   31.6069   40.2607   66.2222 C   0  0  0  0  0  0  0  0  0  0  0  0
   30.6873   39.7963   67.3752 C   0  0  0  0  0  0  0  0  0  0  0  0
   30.3709   38.3548   67.0420 C   0  0  0  0  0  0  0  0  0  0  0  0
   29.9093   37.5472   67.8201 O   0  0  0  0  0  0  0  0  0  0  0  0
   30.8528   36.6929   63.8689 N   0  0  0  0  0  0  0  0  0  0  0  0
   30.6977   35.5204   63.2763 C   0  0  0  0  0  0  0  0  0  0  0  0
   31.0571   35.3849   61.9354 N   0  0  0  0  0  0  0  0  0  0  0  0
   30.9613   34.2160   61.1692 N   0  0  0  0  0  0  0  0  0  0  0  0
   31.3889   34.4813   59.9620 C   0  0  0  0  0  0  0  0  0  0  0  0
   31.4552   33.5052   58.8158 C   0  0  0  0  0  0  0  0  0  0  0  0
   31.7802   35.8248   59.9177 C   0  0  0  0  0  0  0  0  0  0  0  0
   31.5683   36.3618   61.1406 C   0  0  0  0  0  0  0  0  0  0  0  0
   31.8473   37.7856   61.5479 C   0  0  0  0  0  0  0  0  0  0  0  0
   30.2162   34.4717   63.9228 N   0  0  0  0  0  0  0  0  0  0  0  0
   28.4472   31.3518   66.9882 H   0  0  0  0  0  0  0  0  0  0  0  0
   27.7675   30.7359   65.4626 H   0  0  0  0  0  0  0  0  0  0  0  0
   29.4175   30.2795   65.9504 H   0  0  0  0  0  0  0  0  0  0  0  0
   29.1029   33.5283   66.8073 H   0  0  0  0  0  0  0  0  0  0  0  0
   29.7285   35.8858   66.8968 H   0  0  0  0  0  0  0  0  0  0  0  0
   32.0708   39.0373   64.4821 H   0  0  0  0  0  0  0  0  0  0  0  0
   30.4285   39.7462   64.4654 H   0  0  0  0  0  0  0  0  0  0  0  0
   32.6570   40.1341   66.4857 H   0  0  0  0  0  0  0  0  0  0  0  0
   31.3970   41.2945   65.9481 H   0  0  0  0  0  0  0  0  0  0  0  0
   31.2085   39.8645   68.3301 H   0  0  0  0  0  0  0  0  0  0  0  0
   29.7734   40.3901   67.3971 H   0  0  0  0  0  0  0  0  0  0  0  0
   32.4223   33.0022   58.8226 H   0  0  0  0  0  0  0  0  0  0  0  0
   30.6607   32.7665   58.9211 H   0  0  0  0  0  0  0  0  0  0  0  0
   31.3311   34.0409   57.8747 H   0  0  0  0  0  0  0  0  0  0  0  0
   32.1808   36.3414   59.0580 H   0  0  0  0  0  0  0  0  0  0  0  0
   32.8238   37.8410   62.0292 H   0  0  0  0  0  0  0  0  0  0  0  0
   31.8408   38.4242   60.6646 H   0  0  0  0  0  0  0  0  0  0  0  0
   31.0793   38.1213   62.2447 H   0  0  0  0  0  0  0  0  0  0  0  0
  1  2  1  0  0  0  0
  1 24  1  0  0  0  0
  1 25  1  0  0  0  0
  1 26  1  0  0  0  0
  2  3  2  0  0  0  0
  2  4  1  0  0  0  0
  4  5  1  0  0  0  0
  4 27  1  0  0  0  0
  5 23  2  0  0  0  0
  5  6  1  0  0  0  0
  6  7  2  0  0  0  0
  6 28  1  0  0  0  0
  7  8  1  0  0  0  0
  7 14  1  0  0  0  0
  8 12  1  0  0  0  0
  8  9  1  0  0  0  0
  9 10  1  0  0  0  0
  9 29  1  0  0  0  0
  9 30  1  0  0  0  0
 10 11  1  0  0  0  0
 10 31  1  0  0  0  0
 10 32  1  0  0  0  0
 11 12  1  0  0  0  0
 11 33  1  0  0  0  0
 11 34  1  0  0  0  0
 12 13  2  0  0  0  0
 14 15  2  0  0  0  0
 15 16  1  0  0  0  0
 15 23  1  0  0  0  0
 16 21  1  0  0  0  0
 16 17  1  0  0  0  0
 17 18  2  0  0  0  0
 18 19  1  0  0  0  0
 18 20  1  0  0  0  0
 19 35  1  0  0  0  0
 19 36  1  0  0  0  0
 19 37  1  0  0  0  0
 20 21  2  0  0  0  0
 20 38  1  0  0  0  0
 21 22  1  0  0  0  0
 22 39  1  0  0  0  0
 22 40  1  0  0  0  0
 22 41  1  0  0  0  0
M  END
$$$$
