CHEMBL260615      none
 OpenBabel11202420153D

 33 35  0  0  0  0  0  0  0  0999 V2000
   30.3933   34.1869   63.1190 N   0  0  0  0  0  0  0  0  0  0  0  0
   30.8240   34.7641   62.2404 C   0  0  0  0  0  0  0  0  0  0  0  0
   31.3669   35.4916   61.1329 C   0  0  0  0  0  0  0  0  0  0  0  0
   31.5995   36.8790   61.2205 C   0  0  0  0  0  0  0  0  0  0  0  0
   31.2808   37.6192   62.4634 C   0  0  0  0  0  0  0  0  0  0  0  0
   30.0185   38.1866   62.6363 C   0  0  0  0  0  0  0  0  0  0  0  0
   29.7257   38.8700   63.7987 C   0  0  0  0  0  0  0  0  0  0  0  0
   30.6852   39.0031   64.7865 C   0  0  0  0  0  0  0  0  0  0  0  0
   31.9408   38.4471   64.6186 C   0  0  0  0  0  0  0  0  0  0  0  0
   32.2437   37.7565   63.4630 C   0  0  0  0  0  0  0  0  0  0  0  0
   32.1045   37.5131   60.1665 N   0  0  0  0  0  0  0  0  0  0  0  0
   32.3876   36.8601   59.0485 C   0  0  0  0  0  0  0  0  0  0  0  0
   32.9496   37.6126   57.9017 C   0  0  0  0  0  0  0  0  0  0  0  0
   33.2622   36.9500   56.7154 C   0  0  0  0  0  0  0  0  0  0  0  0
   33.7811   37.6565   55.6498 C   0  0  0  0  0  0  0  0  0  0  0  0
   34.0008   39.0179   55.7603 C   0  0  0  0  0  0  0  0  0  0  0  0
   33.6974   39.6799   56.9365 C   0  0  0  0  0  0  0  0  0  0  0  0
   33.1733   38.9848   58.0072 C   0  0  0  0  0  0  0  0  0  0  0  0
   32.1851   35.5554   58.9219 N   0  0  0  0  0  0  0  0  0  0  0  0
   31.6843   34.8407   59.9220 C   0  0  0  0  0  0  0  0  0  0  0  0
   31.4770   33.4834   59.7797 N   0  0  0  0  0  0  0  0  0  0  0  0
   29.2702   38.0874   61.8639 H   0  0  0  0  0  0  0  0  0  0  0  0
   28.7472   39.3060   63.9358 H   0  0  0  0  0  0  0  0  0  0  0  0
   30.4530   39.5430   65.6925 H   0  0  0  0  0  0  0  0  0  0  0  0
   32.6856   38.5539   65.3933 H   0  0  0  0  0  0  0  0  0  0  0  0
   33.2241   37.3227   63.3331 H   0  0  0  0  0  0  0  0  0  0  0  0
   33.0947   35.8865   56.6295 H   0  0  0  0  0  0  0  0  0  0  0  0
   34.0197   37.1452   54.7289 H   0  0  0  0  0  0  0  0  0  0  0  0
   34.4115   39.5659   54.9252 H   0  0  0  0  0  0  0  0  0  0  0  0
   33.8710   40.7428   57.0170 H   0  0  0  0  0  0  0  0  0  0  0  0
   32.9368   39.5026   58.9249 H   0  0  0  0  0  0  0  0  0  0  0  0
   31.1102   32.9690   60.5157 H   0  0  0  0  0  0  0  0  0  0  0  0
   31.6980   33.0441   58.9436 H   0  0  0  0  0  0  0  0  0  0  0  0
  1  2  3  0  0  0  0
  2  3  1  0  0  0  0
  3 20  2  0  0  0  0
  3  4  1  0  0  0  0
  4  5  1  0  0  0  0
  4 11  2  0  0  0  0
  5 10  2  0  0  0  0
  5  6  1  0  0  0  0
  6  7  2  0  0  0  0
  6 22  1  0  0  0  0
  7  8  1  0  0  0  0
  7 23  1  0  0  0  0
  8  9  2  0  0  0  0
  8 24  1  0  0  0  0
  9 10  1  0  0  0  0
  9 25  1  0  0  0  0
 10 26  1  0  0  0  0
 11 12  1  0  0  0  0
 12 13  1  0  0  0  0
 12 19  2  0  0  0  0
 13 18  2  0  0  0  0
 13 14  1  0  0  0  0
 14 15  2  0  0  0  0
 14 27  1  0  0  0  0
 15 16  1  0  0  0  0
 15 28  1  0  0  0  0
 16 17  2  0  0  0  0
 16 29  1  0  0  0  0
 17 18  1  0  0  0  0
 17 30  1  0  0  0  0
 18 31  1  0  0  0  0
 19 20  1  0  0  0  0
 20 21  1  0  0  0  0
 21 32  1  0  0  0  0
 21 33  1  0  0  0  0
M  END
$$$$
