CHEMBL507754      none
 OpenBabel11202420153D

 51 53  0  0  1  0  0  0  0  0999 V2000
   31.5920   37.2886   60.6341 C   0  0  0  0  0  0  0  0  0  0  0  0
   31.3470   37.8009   62.0548 C   0  0  0  0  0  0  0  0  0  0  0  0
   29.9918   37.2948   62.5528 C   0  0  0  0  0  0  0  0  0  0  0  0
   29.7571   37.7854   63.9131 N   0  0  0  0  0  0  0  0  0  0  0  0
   29.1380   38.9683   64.0966 C   0  0  0  0  0  0  0  0  0  0  0  0
   28.7737   39.6297   63.1436 O   0  0  0  0  0  0  0  0  0  0  0  0
   28.9036   39.4472   65.4801 C   0  0  0  0  0  0  0  0  0  0  0  0
   29.3403   38.6629   66.5091 C   0  0  0  0  0  0  0  0  0  0  0  0
   29.0191   39.3139   67.7841 C   0  0  0  0  0  0  0  0  0  0  0  0
   29.2574   38.9056   68.9016 O   0  0  0  0  0  0  0  0  0  0  0  0
   28.3256   40.6055   67.4042 C   0  0  2  0  0  0  0  0  0  0  0  0
   26.9224   40.6311   67.9534 C   0  0  0  0  0  0  0  0  0  0  0  0
   26.0150   39.6588   67.5769 C   0  0  0  0  0  0  0  0  0  0  0  0
   24.7293   39.6796   68.0844 C   0  0  0  0  0  0  0  0  0  0  0  0
   24.3481   40.6787   68.9605 C   0  0  0  0  0  0  0  0  0  0  0  0
   22.7073   40.7094   69.6018 S   0  0  0  0  0  0  0  0  0  0  0  0
   21.7746   41.7107   68.4110 C   0  0  0  0  0  0  0  0  0  0  0  0
   22.2858   39.3532   69.5511 O   0  0  0  0  0  0  0  0  0  0  0  0
   22.8283   41.3931   70.8416 O   0  0  0  0  0  0  0  0  0  0  0  0
   25.2541   41.6540   69.3330 C   0  0  0  0  0  0  0  0  0  0  0  0
   26.5412   41.6303   68.8294 C   0  0  0  0  0  0  0  0  0  0  0  0
   28.2997   40.6007   65.9369 N   0  0  0  0  0  0  0  0  0  0  0  0
   29.9754   37.4582   66.2285 N   0  0  0  0  0  0  0  0  0  0  0  0
   30.4434   36.6165   67.3325 C   0  0  0  0  0  0  0  0  0  0  0  0
   31.8800   37.0005   67.6930 C   0  0  0  0  0  0  0  0  0  0  0  0
   32.3688   36.1215   68.8459 C   0  0  0  0  0  0  0  0  0  0  0  0
   30.1665   37.0531   64.9626 C   0  0  0  0  0  0  0  0  0  0  0  0
   30.7260   35.9926   64.7602 O   0  0  0  0  0  0  0  0  0  0  0  0
   32.5576   37.6491   60.2793 H   0  0  0  0  0  0  0  0  0  0  0  0
   31.5895   36.1985   60.6355 H   0  0  0  0  0  0  0  0  0  0  0  0
   30.8037   37.6528   59.9755 H   0  0  0  0  0  0  0  0  0  0  0  0
   32.1353   37.4366   62.7135 H   0  0  0  0  0  0  0  0  0  0  0  0
   31.3495   38.8909   62.0534 H   0  0  0  0  0  0  0  0  0  0  0  0
   29.2034   37.6592   61.8941 H   0  0  0  0  0  0  0  0  0  0  0  0
   29.9891   36.2049   62.5542 H   0  0  0  0  0  0  0  0  0  0  0  0
   28.8914   41.4619   67.7708 H   0  0  0  0  0  0  0  0  0  0  0  0
   26.3114   38.8807   66.8891 H   0  0  0  0  0  0  0  0  0  0  0  0
   24.0214   38.9178   67.7932 H   0  0  0  0  0  0  0  0  0  0  0  0
   21.8186   41.2415   67.4283 H   0  0  0  0  0  0  0  0  0  0  0  0
   20.7356   41.7836   68.7326 H   0  0  0  0  0  0  0  0  0  0  0  0
   22.2089   42.7090   68.3567 H   0  0  0  0  0  0  0  0  0  0  0  0
   24.9562   42.4349   70.0170 H   0  0  0  0  0  0  0  0  0  0  0  0
   27.2491   42.3925   69.1202 H   0  0  0  0  0  0  0  0  0  0  0  0
   27.9194   41.2965   65.3782 H   0  0  0  0  0  0  0  0  0  0  0  0
   29.7997   36.7634   68.1996 H   0  0  0  0  0  0  0  0  0  0  0  0
   30.4122   35.5698   67.0299 H   0  0  0  0  0  0  0  0  0  0  0  0
   32.5239   36.8536   66.8258 H   0  0  0  0  0  0  0  0  0  0  0  0
   31.9112   38.0472   67.9956 H   0  0  0  0  0  0  0  0  0  0  0  0
   33.3922   36.3950   69.1028 H   0  0  0  0  0  0  0  0  0  0  0  0
   31.7249   36.2685   69.7130 H   0  0  0  0  0  0  0  0  0  0  0  0
   32.3375   35.0748   68.5433 H   0  0  0  0  0  0  0  0  0  0  0  0
  1  2  1  0  0  0  0
  1 29  1  0  0  0  0
  1 30  1  0  0  0  0
  1 31  1  0  0  0  0
  2  3  1  0  0  0  0
  2 32  1  0  0  0  0
  2 33  1  0  0  0  0
  3  4  1  0  0  0  0
  3 34  1  0  0  0  0
  3 35  1  0  0  0  0
  4 27  1  0  0  0  0
  4  5  1  0  0  0  0
  5  6  2  0  0  0  0
  5  7  1  0  0  0  0
  7 22  1  0  0  0  0
  7  8  2  0  0  0  0
  8  9  1  0  0  0  0
  8 23  1  0  0  0  0
  9 10  2  0  0  0  0
  9 11  1  0  0  0  0
 11 12  1  0  0  0  0
 11 22  1  0  0  0  0
 11 36  1  1  0  0  0
 12 21  2  0  0  0  0
 12 13  1  0  0  0  0
 13 14  2  0  0  0  0
 13 37  1  0  0  0  0
 14 15  1  0  0  0  0
 14 38  1  0  0  0  0
 15 16  1  0  0  0  0
 15 20  2  0  0  0  0
 16 17  1  0  0  0  0
 16 18  2  0  0  0  0
 16 19  2  0  0  0  0
 17 39  1  0  0  0  0
 17 40  1  0  0  0  0
 17 41  1  0  0  0  0
 20 21  1  0  0  0  0
 20 42  1  0  0  0  0
 21 43  1  0  0  0  0
 22 44  1  0  0  0  0
 23 24  1  0  0  0  0
 23 27  1  0  0  0  0
 24 25  1  0  0  0  0
 24 45  1  0  0  0  0
 24 46  1  0  0  0  0
 25 26  1  0  0  0  0
 25 47  1  0  0  0  0
 25 48  1  0  0  0  0
 26 49  1  0  0  0  0
 26 50  1  0  0  0  0
 26 51  1  0  0  0  0
 27 28  2  0  0  0  0
M  END
$$$$
