CHEMBL609603      none
 OpenBabel11202420153D

 35 37  0  0  0  0  0  0  0  0999 V2000
   33.2509   40.6989   59.0325 N   0  0  0  0  0  0  0  0  0  0  0  0
   33.2099   39.4719   58.4015 C   0  0  0  0  0  0  0  0  0  0  0  0
   32.7799   38.3991   59.0606 N   0  0  0  0  0  0  0  0  0  0  0  0
   32.7443   37.2169   58.4572 C   0  0  0  0  0  0  0  0  0  0  0  0
   32.2676   36.0178   59.1989 C   0  0  0  0  0  0  0  0  0  0  0  0
   31.7216   35.1121   58.6021 O   0  0  0  0  0  0  0  0  0  0  0  0
   32.4471   35.9348   60.5320 N   0  0  0  0  0  0  0  0  0  0  0  0
   31.9833   34.7519   61.2613 C   0  0  0  0  0  0  0  0  0  0  0  0
   30.9721   35.1661   62.2991 C   0  0  0  0  0  0  0  0  0  0  0  0
   30.6222   36.4966   62.4307 C   0  0  0  0  0  0  0  0  0  0  0  0
   29.6945   36.8767   63.3828 C   0  0  0  0  0  0  0  0  0  0  0  0
   29.1171   35.9266   64.2040 C   0  0  0  0  0  0  0  0  0  0  0  0
   29.4666   34.5956   64.0736 C   0  0  0  0  0  0  0  0  0  0  0  0
   30.3897   34.2137   63.1167 C   0  0  0  0  0  0  0  0  0  0  0  0
   30.8232   32.5412   62.9468 Cl  0  0  0  0  0  0  0  0  0  0  0  0
   33.1278   37.1042   57.1927 N   0  0  0  0  0  0  0  0  0  0  0  0
   33.5546   38.1786   56.5274 C   0  0  0  0  0  0  0  0  0  0  0  0
   33.9817   38.0550   55.1219 C   0  0  0  0  0  0  0  0  0  0  0  0
   34.4304   39.0684   54.3306 C   0  0  0  0  0  0  0  0  0  0  0  0
   34.7265   38.5026   53.0773 C   0  0  0  0  0  0  0  0  0  0  0  0
   34.4396   37.1868   53.1592 C   0  0  0  0  0  0  0  0  0  0  0  0
   33.9905   36.9204   54.3943 O   0  0  0  0  0  0  0  0  0  0  0  0
   33.5947   39.3635   57.1351 N   0  0  0  0  0  0  0  0  0  0  0  0
   33.5608   41.4818   58.5510 H   0  0  0  0  0  0  0  0  0  0  0  0
   32.9698   40.7783   59.9575 H   0  0  0  0  0  0  0  0  0  0  0  0
   32.8833   36.6583   61.0087 H   0  0  0  0  0  0  0  0  0  0  0  0
   31.5224   34.0526   60.5638 H   0  0  0  0  0  0  0  0  0  0  0  0
   32.8305   34.2716   61.7509 H   0  0  0  0  0  0  0  0  0  0  0  0
   31.0731   37.2394   61.7895 H   0  0  0  0  0  0  0  0  0  0  0  0
   29.4213   37.9166   63.4853 H   0  0  0  0  0  0  0  0  0  0  0  0
   28.3927   36.2243   64.9477 H   0  0  0  0  0  0  0  0  0  0  0  0
   29.0153   33.8532   64.7152 H   0  0  0  0  0  0  0  0  0  0  0  0
   34.5396   40.1055   54.6116 H   0  0  0  0  0  0  0  0  0  0  0  0
   35.1075   39.0240   52.2117 H   0  0  0  0  0  0  0  0  0  0  0  0
   34.5525   36.4671   52.3618 H   0  0  0  0  0  0  0  0  0  0  0  0
  1  2  1  0  0  0  0
  1 24  1  0  0  0  0
  1 25  1  0  0  0  0
  2 23  2  0  0  0  0
  2  3  1  0  0  0  0
  3  4  2  0  0  0  0
  4  5  1  0  0  0  0
  4 16  1  0  0  0  0
  5  6  2  0  0  0  0
  5  7  1  0  0  0  0
  7  8  1  0  0  0  0
  7 26  1  0  0  0  0
  8  9  1  0  0  0  0
  8 27  1  0  0  0  0
  8 28  1  0  0  0  0
  9 14  2  0  0  0  0
  9 10  1  0  0  0  0
 10 11  2  0  0  0  0
 10 29  1  0  0  0  0
 11 12  1  0  0  0  0
 11 30  1  0  0  0  0
 12 13  2  0  0  0  0
 12 31  1  0  0  0  0
 13 14  1  0  0  0  0
 13 32  1  0  0  0  0
 14 15  1  0  0  0  0
 16 17  2  0  0  0  0
 17 18  1  0  0  0  0
 17 23  1  0  0  0  0
 18 22  1  0  0  0  0
 18 19  2  0  0  0  0
 19 20  1  0  0  0  0
 19 33  1  0  0  0  0
 20 21  2  0  0  0  0
 20 34  1  0  0  0  0
 21 22  1  0  0  0  0
 21 35  1  0  0  0  0
M  END
$$$$
