CHEMBL113967      none
 OpenBabel11202420153D

 43 46  0  0  1  0  0  0  0  0999 V2000
   28.8920   39.9574   66.0922 C   0  0  0  0  0  0  0  0  0  0  0  0
   30.4068   39.7767   66.2090 C   0  0  1  0  0  0  0  0  0  0  0  0
   30.7491   39.1828   67.5791 C   0  0  0  0  0  0  0  0  0  0  0  0
   32.2471   38.8753   67.6376 C   0  0  0  0  0  0  0  0  0  0  0  0
   32.6005   37.8451   66.5625 C   0  0  0  0  0  0  0  0  0  0  0  0
   32.2792   38.4239   65.1810 C   0  0  0  0  0  0  0  0  0  0  0  0
   30.8751   38.8561   65.1642 N   0  0  0  0  0  0  0  0  0  0  0  0
   30.0326   38.4161   64.2086 C   0  0  0  0  0  0  0  0  0  0  0  0
   28.8732   38.7811   64.2056 O   0  0  0  0  0  0  0  0  0  0  0  0
   30.5187   37.4893   63.1640 C   0  0  0  0  0  0  0  0  0  0  0  0
   31.0395   37.9821   61.9766 C   0  0  0  0  0  0  0  0  0  0  0  0
   31.4998   37.0801   61.0038 C   0  0  0  0  0  0  0  0  0  0  0  0
   32.0391   37.2546   59.8022 N   0  0  0  0  0  0  0  0  0  0  0  0
   32.3060   36.0685   59.2542 C   0  0  0  0  0  0  0  0  0  0  0  0
   32.9106   35.8592   57.9221 C   0  0  0  0  0  0  0  0  0  0  0  0
   33.2807   36.8358   57.0519 C   0  0  0  0  0  0  0  0  0  0  0  0
   33.8098   36.1897   55.9175 C   0  0  0  0  0  0  0  0  0  0  0  0
   33.7289   34.8626   56.1450 C   0  0  0  0  0  0  0  0  0  0  0  0
   34.2887   33.5034   54.9553 Br  0  0  0  0  0  0  0  0  0  0  0  0
   33.1852   34.6672   57.3570 O   0  0  0  0  0  0  0  0  0  0  0  0
   31.9451   35.1088   60.0895 N   0  0  0  0  0  0  0  0  0  0  0  0
   31.4198   35.7333   61.2306 N   0  0  0  0  0  0  0  0  0  0  0  0
   30.9022   35.2487   62.3955 C   0  0  0  0  0  0  0  0  0  0  0  0
   30.8338   33.8802   62.5973 N   0  0  0  0  0  0  0  0  0  0  0  0
   30.4526   36.0940   63.3618 C   0  0  0  0  0  0  0  0  0  0  0  0
   28.4049   38.9836   66.1447 H   0  0  0  0  0  0  0  0  0  0  0  0
   28.5370   40.5857   66.9090 H   0  0  0  0  0  0  0  0  0  0  0  0
   28.6550   40.4314   65.1398 H   0  0  0  0  0  0  0  0  0  0  0  0
   30.8999   40.7420   66.0935 H   0  0  0  0  0  0  0  0  0  0  0  0
   30.4939   39.8989   68.3601 H   0  0  0  0  0  0  0  0  0  0  0  0
   30.1828   38.2634   67.7287 H   0  0  0  0  0  0  0  0  0  0  0  0
   32.4976   38.4753   68.6201 H   0  0  0  0  0  0  0  0  0  0  0  0
   32.8127   39.7906   67.4632 H   0  0  0  0  0  0  0  0  0  0  0  0
   32.0169   36.9382   66.7217 H   0  0  0  0  0  0  0  0  0  0  0  0
   33.6631   37.6091   66.6200 H   0  0  0  0  0  0  0  0  0  0  0  0
   32.9269   39.2779   64.9831 H   0  0  0  0  0  0  0  0  0  0  0  0
   32.4356   37.6598   64.4194 H   0  0  0  0  0  0  0  0  0  0  0  0
   31.0943   39.0469   61.8042 H   0  0  0  0  0  0  0  0  0  0  0  0
   33.1892   37.9013   57.2024 H   0  0  0  0  0  0  0  0  0  0  0  0
   34.2019   36.6664   55.0312 H   0  0  0  0  0  0  0  0  0  0  0  0
   30.4670   33.5296   63.4239 H   0  0  0  0  0  0  0  0  0  0  0  0
   31.1528   33.2724   61.9119 H   0  0  0  0  0  0  0  0  0  0  0  0
   30.0456   35.6972   64.2801 H   0  0  0  0  0  0  0  0  0  0  0  0
  1  2  1  0  0  0  0
  1 26  1  0  0  0  0
  1 27  1  0  0  0  0
  1 28  1  0  0  0  0
  2  7  1  0  0  0  0
  2  3  1  0  0  0  0
  2 29  1  6  0  0  0
  3  4  1  0  0  0  0
  3 30  1  0  0  0  0
  3 31  1  0  0  0  0
  4  5  1  0  0  0  0
  4 32  1  0  0  0  0
  4 33  1  0  0  0  0
  5  6  1  0  0  0  0
  5 34  1  0  0  0  0
  5 35  1  0  0  0  0
  6  7  1  0  0  0  0
  6 36  1  0  0  0  0
  6 37  1  0  0  0  0
  7  8  1  0  0  0  0
  8  9  2  0  0  0  0
  8 10  1  0  0  0  0
 10 25  1  0  0  0  0
 10 11  2  0  0  0  0
 11 12  1  0  0  0  0
 11 38  1  0  0  0  0
 12 22  1  0  0  0  0
 12 13  2  0  0  0  0
 13 14  1  0  0  0  0
 14 15  1  0  0  0  0
 14 21  2  0  0  0  0
 15 20  1  0  0  0  0
 15 16  2  0  0  0  0
 16 17  1  0  0  0  0
 16 39  1  0  0  0  0
 17 18  2  0  0  0  0
 17 40  1  0  0  0  0
 18 19  1  0  0  0  0
 18 20  1  0  0  0  0
 21 22  1  0  0  0  0
 22 23  1  0  0  0  0
 23 24  1  0  0  0  0
 23 25  2  0  0  0  0
 24 41  1  0  0  0  0
 24 42  1  0  0  0  0
 25 43  1  0  0  0  0
M  END
$$$$
