CHEMBL100382      none
 OpenBabel11202420153D

 46 50  0  0  0  0  0  0  0  0999 V2000
   30.7504   38.5575   61.6113 O   0  0  0  0  0  0  0  0  0  0  0  0
   30.5645   37.4351   61.1917 C   0  0  0  0  0  0  0  0  0  0  0  0
   30.9207   37.0944   59.7675 C   0  0  0  0  0  0  0  0  0  0  0  0
   32.3678   36.6015   59.7077 C   0  0  0  0  0  0  0  0  0  0  0  0
   32.7240   36.2608   58.2836 C   0  0  0  0  0  0  0  0  0  0  0  0
   32.5171   34.9798   57.8070 C   0  0  0  0  0  0  0  0  0  0  0  0
   32.8394   34.6685   56.4992 C   0  0  0  0  0  0  0  0  0  0  0  0
   33.3782   35.6354   55.6712 C   0  0  0  0  0  0  0  0  0  0  0  0
   33.5899   36.9151   56.1494 C   0  0  0  0  0  0  0  0  0  0  0  0
   33.2628   37.2277   57.4556 C   0  0  0  0  0  0  0  0  0  0  0  0
   30.0393   36.4923   61.9990 N   0  0  0  0  0  0  0  0  0  0  0  0
   29.7129   36.8046   63.3044 C   0  0  0  0  0  0  0  0  0  0  0  0
   29.9247   38.0222   63.7274 N   0  0  0  0  0  0  0  0  0  0  0  0
   29.6304   38.4043   64.9936 C   0  0  0  0  0  0  0  0  0  0  0  0
   29.8632   39.7100   65.4332 C   0  0  0  0  0  0  0  0  0  0  0  0
   29.5510   40.0614   66.7268 C   0  0  0  0  0  0  0  0  0  0  0  0
   29.0063   39.1323   67.6047 C   0  0  0  0  0  0  0  0  0  0  0  0
   28.6228   39.6053   69.2305 Cl  0  0  0  0  0  0  0  0  0  0  0  0
   28.7682   37.8374   67.1948 C   0  0  0  0  0  0  0  0  0  0  0  0
   29.0770   37.4614   65.8898 C   0  0  0  0  0  0  0  0  0  0  0  0
   28.8454   36.0984   65.3972 C   0  0  0  0  0  0  0  0  0  0  0  0
   28.3617   34.9983   65.9305 N   0  0  0  0  0  0  0  0  0  0  0  0
   28.3708   34.0155   65.0212 C   0  0  0  0  0  0  0  0  0  0  0  0
   27.9023   32.6328   65.2505 C   0  0  0  0  0  0  0  0  0  0  0  0
   28.6626   31.5957   65.6914 C   0  0  0  0  0  0  0  0  0  0  0  0
   27.8140   30.4734   65.7665 C   0  0  0  0  0  0  0  0  0  0  0  0
   26.5921   30.8749   65.3643 C   0  0  0  0  0  0  0  0  0  0  0  0
   26.6491   32.1797   65.0534 O   0  0  0  0  0  0  0  0  0  0  0  0
   28.8637   34.4776   63.8872 N   0  0  0  0  0  0  0  0  0  0  0  0
   29.1815   35.8262   64.0975 N   0  0  0  0  0  0  0  0  0  0  0  0
   30.2549   36.3117   59.4038 H   0  0  0  0  0  0  0  0  0  0  0  0
   30.8131   37.9818   59.1439 H   0  0  0  0  0  0  0  0  0  0  0  0
   33.0336   37.3842   60.0715 H   0  0  0  0  0  0  0  0  0  0  0  0
   32.4755   35.7141   60.3315 H   0  0  0  0  0  0  0  0  0  0  0  0
   32.1004   34.2231   58.4552 H   0  0  0  0  0  0  0  0  0  0  0  0
   32.6743   33.6686   56.1257 H   0  0  0  0  0  0  0  0  0  0  0  0
   33.6340   35.3911   54.6508 H   0  0  0  0  0  0  0  0  0  0  0  0
   34.0111   37.6705   55.5026 H   0  0  0  0  0  0  0  0  0  0  0  0
   33.4285   38.2274   57.8293 H   0  0  0  0  0  0  0  0  0  0  0  0
   29.8906   35.5944   61.6634 H   0  0  0  0  0  0  0  0  0  0  0  0
   30.2864   40.4410   64.7603 H   0  0  0  0  0  0  0  0  0  0  0  0
   29.7318   41.0715   67.0637 H   0  0  0  0  0  0  0  0  0  0  0  0
   28.3454   37.1190   67.8815 H   0  0  0  0  0  0  0  0  0  0  0  0
   29.7134   31.6266   65.9386 H   0  0  0  0  0  0  0  0  0  0  0  0
   28.0911   29.4788   66.0833 H   0  0  0  0  0  0  0  0  0  0  0  0
   25.7130   30.2505   65.3020 H   0  0  0  0  0  0  0  0  0  0  0  0
  1  2  2  0  0  0  0
  2  3  1  0  0  0  0
  2 11  1  0  0  0  0
  3  4  1  0  0  0  0
  3 31  1  0  0  0  0
  3 32  1  0  0  0  0
  4  5  1  0  0  0  0
  4 33  1  0  0  0  0
  4 34  1  0  0  0  0
  5 10  2  0  0  0  0
  5  6  1  0  0  0  0
  6  7  2  0  0  0  0
  6 35  1  0  0  0  0
  7  8  1  0  0  0  0
  7 36  1  0  0  0  0
  8  9  2  0  0  0  0
  8 37  1  0  0  0  0
  9 10  1  0  0  0  0
  9 38  1  0  0  0  0
 10 39  1  0  0  0  0
 11 12  1  0  0  0  0
 11 40  1  0  0  0  0
 12 30  1  0  0  0  0
 12 13  2  0  0  0  0
 13 14  1  0  0  0  0
 14 20  2  0  0  0  0
 14 15  1  0  0  0  0
 15 16  2  0  0  0  0
 15 41  1  0  0  0  0
 16 17  1  0  0  0  0
 16 42  1  0  0  0  0
 17 18  1  0  0  0  0
 17 19  2  0  0  0  0
 19 20  1  0  0  0  0
 19 43  1  0  0  0  0
 20 21  1  0  0  0  0
 21 30  1  0  0  0  0
 21 22  2  0  0  0  0
 22 23  1  0  0  0  0
 23 24  1  0  0  0  0
 23 29  2  0  0  0  0
 24 28  1  0  0  0  0
 24 25  2  0  0  0  0
 25 26  1  0  0  0  0
 25 44  1  0  0  0  0
 26 27  2  0  0  0  0
 26 45  1  0  0  0  0
 27 28  1  0  0  0  0
 27 46  1  0  0  0  0
 29 30  1  0  0  0  0
M  END
$$$$
