CHEMBL354419      none
 OpenBabel11202420153D

 46 50  0  0  0  0  0  0  0  0999 V2000
   33.2181   40.8339   59.1609 N   0  0  0  0  0  0  0  0  0  0  0  0
   33.1716   39.5278   58.7324 C   0  0  0  0  0  0  0  0  0  0  0  0
   32.7535   38.5935   59.5552 N   0  0  0  0  0  0  0  0  0  0  0  0
   32.6900   37.3052   59.1846 C   0  0  0  0  0  0  0  0  0  0  0  0
   32.2122   36.2820   60.1445 C   0  0  0  0  0  0  0  0  0  0  0  0
   32.1453   34.9425   59.7630 C   0  0  0  0  0  0  0  0  0  0  0  0
   31.6999   33.9907   60.6584 C   0  0  0  0  0  0  0  0  0  0  0  0
   31.3256   34.3596   61.9363 C   0  0  0  0  0  0  0  0  0  0  0  0
   31.3833   35.6933   62.3240 C   0  0  0  0  0  0  0  0  0  0  0  0
   30.9979   36.0630   63.6150 N   0  0  0  0  0  0  0  0  0  0  0  0
   32.1378   36.5962   64.3717 C   0  0  0  0  0  0  0  0  0  0  0  0
   31.7394   36.7618   65.8427 C   0  0  0  0  0  0  0  0  0  0  0  0
   30.4784   37.5981   65.9020 C   0  0  0  0  0  0  0  0  0  0  0  0
   30.3917   38.5444   66.6473 O   0  0  0  0  0  0  0  0  0  0  0  0
   29.3295   37.2080   64.9957 C   0  0  0  0  0  0  0  0  0  0  0  0
   29.8806   37.0149   63.5783 C   0  0  0  0  0  0  0  0  0  0  0  0
   31.8290   36.6558   61.4309 C   0  0  0  0  0  0  0  0  0  0  0  0
   33.0751   36.9297   57.9102 C   0  0  0  0  0  0  0  0  0  0  0  0
   33.5187   37.9273   57.0232 C   0  0  0  0  0  0  0  0  0  0  0  0
   33.9442   37.9125   55.7698 N   0  0  0  0  0  0  0  0  0  0  0  0
   34.2575   39.1548   55.3884 C   0  0  0  0  0  0  0  0  0  0  0  0
   34.7693   39.5358   54.0551 C   0  0  0  0  0  0  0  0  0  0  0  0
   35.0051   38.6880   53.0190 C   0  0  0  0  0  0  0  0  0  0  0  0
   35.4809   39.4746   51.9512 C   0  0  0  0  0  0  0  0  0  0  0  0
   35.5193   40.7492   52.3864 C   0  0  0  0  0  0  0  0  0  0  0  0
   35.0887   40.7826   53.6577 O   0  0  0  0  0  0  0  0  0  0  0  0
   34.0390   39.9887   56.3894 N   0  0  0  0  0  0  0  0  0  0  0  0
   33.5603   39.2261   57.4624 N   0  0  0  0  0  0  0  0  0  0  0  0
   32.9434   41.0582   60.0637 H   0  0  0  0  0  0  0  0  0  0  0  0
   33.5254   41.5307   58.5602 H   0  0  0  0  0  0  0  0  0  0  0  0
   32.4416   34.6494   58.7665 H   0  0  0  0  0  0  0  0  0  0  0  0
   31.6486   32.9537   60.3607 H   0  0  0  0  0  0  0  0  0  0  0  0
   30.9825   33.6102   62.6344 H   0  0  0  0  0  0  0  0  0  0  0  0
   32.4249   37.5643   63.9615 H   0  0  0  0  0  0  0  0  0  0  0  0
   32.9785   35.9063   64.2983 H   0  0  0  0  0  0  0  0  0  0  0  0
   32.5397   37.2645   66.3860 H   0  0  0  0  0  0  0  0  0  0  0  0
   31.5527   35.7834   66.2855 H   0  0  0  0  0  0  0  0  0  0  0  0
   28.8841   36.2773   65.3470 H   0  0  0  0  0  0  0  0  0  0  0  0
   28.5780   37.9975   64.9942 H   0  0  0  0  0  0  0  0  0  0  0  0
   29.0934   36.6267   62.9319 H   0  0  0  0  0  0  0  0  0  0  0  0
   30.2305   37.9717   63.1908 H   0  0  0  0  0  0  0  0  0  0  0  0
   31.8786   37.6921   61.7315 H   0  0  0  0  0  0  0  0  0  0  0  0
   33.0328   35.8954   57.6023 H   0  0  0  0  0  0  0  0  0  0  0  0
   34.8545   37.6186   53.0145 H   0  0  0  0  0  0  0  0  0  0  0  0
   35.7649   39.1220   50.9707 H   0  0  0  0  0  0  0  0  0  0  0  0
   35.8429   41.6025   51.8088 H   0  0  0  0  0  0  0  0  0  0  0  0
  1  2  1  0  0  0  0
  1 29  1  0  0  0  0
  1 30  1  0  0  0  0
  2 28  1  0  0  0  0
  2  3  2  0  0  0  0
  3  4  1  0  0  0  0
  4  5  1  0  0  0  0
  4 18  2  0  0  0  0
  5 17  2  0  0  0  0
  5  6  1  0  0  0  0
  6  7  2  0  0  0  0
  6 31  1  0  0  0  0
  7  8  1  0  0  0  0
  7 32  1  0  0  0  0
  8  9  2  0  0  0  0
  8 33  1  0  0  0  0
  9 10  1  0  0  0  0
  9 17  1  0  0  0  0
 10 16  1  0  0  0  0
 10 11  1  0  0  0  0
 11 12  1  0  0  0  0
 11 34  1  0  0  0  0
 11 35  1  0  0  0  0
 12 13  1  0  0  0  0
 12 36  1  0  0  0  0
 12 37  1  0  0  0  0
 13 14  2  0  0  0  0
 13 15  1  0  0  0  0
 15 16  1  0  0  0  0
 15 38  1  0  0  0  0
 15 39  1  0  0  0  0
 16 40  1  0  0  0  0
 16 41  1  0  0  0  0
 17 42  1  0  0  0  0
 18 19  1  0  0  0  0
 18 43  1  0  0  0  0
 19 28  1  0  0  0  0
 19 20  2  0  0  0  0
 20 21  1  0  0  0  0
 21 22  1  0  0  0  0
 21 27  2  0  0  0  0
 22 26  1  0  0  0  0
 22 23  2  0  0  0  0
 23 24  1  0  0  0  0
 23 44  1  0  0  0  0
 24 25  2  0  0  0  0
 24 45  1  0  0  0  0
 25 26  1  0  0  0  0
 25 46  1  0  0  0  0
 27 28  1  0  0  0  0
M  END
$$$$
