CHEMBL259832      none
 OpenBabel11202420153D

 36 39  0  0  0  0  0  0  0  0999 V2000
   33.2057   40.7679   58.8329 N   0  0  0  0  0  0  0  0  0  0  0  0
   33.4218   39.7888   57.8770 C   0  0  0  0  0  0  0  0  0  0  0  0
   33.8976   40.1456   56.6933 N   0  0  0  0  0  0  0  0  0  0  0  0
   34.1218   39.2396   55.7403 C   0  0  0  0  0  0  0  0  0  0  0  0
   34.6514   39.6433   54.4264 C   0  0  0  0  0  0  0  0  0  0  0  0
   34.9244   38.8102   53.3836 C   0  0  0  0  0  0  0  0  0  0  0  0
   35.4049   39.6170   52.3359 C   0  0  0  0  0  0  0  0  0  0  0  0
   35.4113   40.8886   52.7863 C   0  0  0  0  0  0  0  0  0  0  0  0
   34.9559   40.9007   54.0483 O   0  0  0  0  0  0  0  0  0  0  0  0
   33.8407   37.8871   56.0198 C   0  0  0  0  0  0  0  0  0  0  0  0
   33.9400   36.7321   55.3191 N   0  0  0  0  0  0  0  0  0  0  0  0
   33.5409   35.7378   56.0557 C   0  0  0  0  0  0  0  0  0  0  0  0
   33.1560   36.1957   57.2889 N   0  0  0  0  0  0  0  0  0  0  0  0
   32.6883   35.4492   58.3088 C   0  0  0  0  0  0  0  0  0  0  0  0
   32.5753   34.2462   58.1795 O   0  0  0  0  0  0  0  0  0  0  0  0
   32.3457   36.0367   59.4724 N   0  0  0  0  0  0  0  0  0  0  0  0
   31.8373   35.2252   60.5811 C   0  0  0  0  0  0  0  0  0  0  0  0
   31.5308   36.1168   61.7569 C   0  0  0  0  0  0  0  0  0  0  0  0
   30.3507   36.7125   62.0056 C   0  0  0  0  0  0  0  0  0  0  0  0
   30.5079   37.4486   63.2024 C   0  0  0  0  0  0  0  0  0  0  0  0
   31.7745   37.2588   63.6133 C   0  0  0  0  0  0  0  0  0  0  0  0
   32.3877   36.4464   62.7370 O   0  0  0  0  0  0  0  0  0  0  0  0
   33.3373   37.5621   57.2915 C   0  0  0  0  0  0  0  0  0  0  0  0
   33.1460   38.5290   58.1790 N   0  0  0  0  0  0  0  0  0  0  0  0
   33.4023   41.6959   58.6298 H   0  0  0  0  0  0  0  0  0  0  0  0
   32.8578   40.5255   59.7053 H   0  0  0  0  0  0  0  0  0  0  0  0
   34.7948   37.7382   53.3642 H   0  0  0  0  0  0  0  0  0  0  0  0
   35.7141   39.2813   51.3571 H   0  0  0  0  0  0  0  0  0  0  0  0
   35.7307   41.7537   52.2242 H   0  0  0  0  0  0  0  0  0  0  0  0
   33.5203   34.7039   55.7437 H   0  0  0  0  0  0  0  0  0  0  0  0
   32.4359   36.9970   59.5758 H   0  0  0  0  0  0  0  0  0  0  0  0
   30.9286   34.7111   60.2681 H   0  0  0  0  0  0  0  0  0  0  0  0
   32.5897   34.4907   60.8685 H   0  0  0  0  0  0  0  0  0  0  0  0
   29.4553   36.6425   61.4060 H   0  0  0  0  0  0  0  0  0  0  0  0
   29.7553   38.0488   63.6925 H   0  0  0  0  0  0  0  0  0  0  0  0
   32.2211   37.6831   64.5004 H   0  0  0  0  0  0  0  0  0  0  0  0
  1  2  1  0  0  0  0
  1 25  1  0  0  0  0
  1 26  1  0  0  0  0
  2 24  2  0  0  0  0
  2  3  1  0  0  0  0
  3  4  2  0  0  0  0
  4  5  1  0  0  0  0
  4 10  1  0  0  0  0
  5  9  1  0  0  0  0
  5  6  2  0  0  0  0
  6  7  1  0  0  0  0
  6 27  1  0  0  0  0
  7  8  2  0  0  0  0
  7 28  1  0  0  0  0
  8  9  1  0  0  0  0
  8 29  1  0  0  0  0
 10 23  2  0  0  0  0
 10 11  1  0  0  0  0
 11 12  2  0  0  0  0
 12 13  1  0  0  0  0
 12 30  1  0  0  0  0
 13 14  1  0  0  0  0
 13 23  1  0  0  0  0
 14 15  2  0  0  0  0
 14 16  1  0  0  0  0
 16 17  1  0  0  0  0
 16 31  1  0  0  0  0
 17 18  1  0  0  0  0
 17 32  1  0  0  0  0
 17 33  1  0  0  0  0
 18 22  1  0  0  0  0
 18 19  2  0  0  0  0
 19 20  1  0  0  0  0
 19 34  1  0  0  0  0
 20 21  2  0  0  0  0
 20 35  1  0  0  0  0
 21 22  1  0  0  0  0
 21 36  1  0  0  0  0
 23 24  1  0  0  0  0
M  END
$$$$
