CHEMBL558291      none
 OpenBabel11202420153D

 33 35  0  0  0  0  0  0  0  0999 V2000
   33.4423   40.7901   58.8378 N   0  0  0  0  0  0  0  0  0  0  0  0
   33.4366   39.6290   58.0839 C   0  0  0  0  0  0  0  0  0  0  0  0
   33.0412   38.4991   58.6471 N   0  0  0  0  0  0  0  0  0  0  0  0
   33.0207   37.3591   57.9565 C   0  0  0  0  0  0  0  0  0  0  0  0
   32.5745   36.0981   58.5996 C   0  0  0  0  0  0  0  0  0  0  0  0
   32.5590   35.0638   57.9627 O   0  0  0  0  0  0  0  0  0  0  0  0
   32.1864   36.1005   59.8903 N   0  0  0  0  0  0  0  0  0  0  0  0
   31.7459   34.8558   60.5251 C   0  0  0  0  0  0  0  0  0  0  0  0
   31.3692   35.1289   61.9584 C   0  0  0  0  0  0  0  0  0  0  0  0
   30.1478   35.4826   62.3970 C   0  0  0  0  0  0  0  0  0  0  0  0
   30.2440   35.6335   63.7995 C   0  0  0  0  0  0  0  0  0  0  0  0
   31.5204   35.3711   64.1330 C   0  0  0  0  0  0  0  0  0  0  0  0
   32.1973   35.0660   63.0139 O   0  0  0  0  0  0  0  0  0  0  0  0
   33.4228   37.3673   56.6252 C   0  0  0  0  0  0  0  0  0  0  0  0
   33.8412   38.5834   56.0644 C   0  0  0  0  0  0  0  0  0  0  0  0
   34.2835   38.6471   54.6589 C   0  0  0  0  0  0  0  0  0  0  0  0
   34.7154   39.7613   54.0066 C   0  0  0  0  0  0  0  0  0  0  0  0
   35.0331   39.3649   52.6943 C   0  0  0  0  0  0  0  0  0  0  0  0
   34.7826   38.0423   52.6089 C   0  0  0  0  0  0  0  0  0  0  0  0
   34.3358   37.6114   53.7983 O   0  0  0  0  0  0  0  0  0  0  0  0
   33.8278   39.6810   56.8198 N   0  0  0  0  0  0  0  0  0  0  0  0
   33.1588   40.7676   59.7652 H   0  0  0  0  0  0  0  0  0  0  0  0
   33.7297   41.6261   58.4387 H   0  0  0  0  0  0  0  0  0  0  0  0
   32.1987   36.9264   60.3989 H   0  0  0  0  0  0  0  0  0  0  0  0
   30.8814   34.4616   59.9909 H   0  0  0  0  0  0  0  0  0  0  0  0
   32.5553   34.1263   60.4949 H   0  0  0  0  0  0  0  0  0  0  0  0
   29.2629   35.6221   61.7939 H   0  0  0  0  0  0  0  0  0  0  0  0
   29.4466   35.9101   64.4733 H   0  0  0  0  0  0  0  0  0  0  0  0
   31.9313   35.4010   65.1314 H   0  0  0  0  0  0  0  0  0  0  0  0
   33.4174   36.4600   56.0394 H   0  0  0  0  0  0  0  0  0  0  0  0
   34.7984   40.7569   54.4169 H   0  0  0  0  0  0  0  0  0  0  0  0
   35.4065   39.9999   51.9045 H   0  0  0  0  0  0  0  0  0  0  0  0
   34.9230   37.4305   51.7300 H   0  0  0  0  0  0  0  0  0  0  0  0
  1  2  1  0  0  0  0
  1 22  1  0  0  0  0
  1 23  1  0  0  0  0
  2 21  2  0  0  0  0
  2  3  1  0  0  0  0
  3  4  2  0  0  0  0
  4  5  1  0  0  0  0
  4 14  1  0  0  0  0
  5  6  2  0  0  0  0
  5  7  1  0  0  0  0
  7  8  1  0  0  0  0
  7 24  1  0  0  0  0
  8  9  1  0  0  0  0
  8 25  1  0  0  0  0
  8 26  1  0  0  0  0
  9 13  1  0  0  0  0
  9 10  2  0  0  0  0
 10 11  1  0  0  0  0
 10 27  1  0  0  0  0
 11 12  2  0  0  0  0
 11 28  1  0  0  0  0
 12 13  1  0  0  0  0
 12 29  1  0  0  0  0
 14 15  2  0  0  0  0
 14 30  1  0  0  0  0
 15 16  1  0  0  0  0
 15 21  1  0  0  0  0
 16 20  1  0  0  0  0
 16 17  2  0  0  0  0
 17 18  1  0  0  0  0
 17 31  1  0  0  0  0
 18 19  2  0  0  0  0
 18 32  1  0  0  0  0
 19 20  1  0  0  0  0
 19 33  1  0  0  0  0
M  END
$$$$
