CHEMBL401321      none
 OpenBabel11202420153D

 31 33  0  0  0  0  0  0  0  0999 V2000
   31.3653   32.5871   56.3120 C   0  0  0  0  0  0  0  0  0  0  0  0
   31.6501   33.7577   57.2173 C   0  0  0  0  0  0  0  0  0  0  0  0
   32.0557   34.8008   56.7502 O   0  0  0  0  0  0  0  0  0  0  0  0
   31.4540   33.6454   58.5460 N   0  0  0  0  0  0  0  0  0  0  0  0
   31.7168   34.7261   59.3816 C   0  0  0  0  0  0  0  0  0  0  0  0
   31.5122   34.6215   60.7556 C   0  0  0  0  0  0  0  0  0  0  0  0
   31.7881   35.7272   61.5538 C   0  0  0  0  0  0  0  0  0  0  0  0
   31.5969   35.6668   62.9356 N   0  0  0  0  0  0  0  0  0  0  0  0
   31.8336   36.6698   63.8213 C   0  0  0  0  0  0  0  0  0  0  0  0
   31.5193   36.2099   65.0538 C   0  0  0  0  0  0  0  0  0  0  0  0
   31.0867   34.8849   64.9229 C   0  0  0  0  0  0  0  0  0  0  0  0
   31.1328   34.5592   63.6571 N   0  0  0  0  0  0  0  0  0  0  0  0
   32.2350   36.8409   60.9851 N   0  0  0  0  0  0  0  0  0  0  0  0
   32.4191   36.9069   59.6713 C   0  0  0  0  0  0  0  0  0  0  0  0
   32.9166   38.1623   59.0767 C   0  0  0  0  0  0  0  0  0  0  0  0
   33.1478   38.3830   57.7540 C   0  0  0  0  0  0  0  0  0  0  0  0
   33.6112   39.7070   57.6390 C   0  0  0  0  0  0  0  0  0  0  0  0
   33.6403   40.2253   58.8837 C   0  0  0  0  0  0  0  0  0  0  0  0
   33.2157   39.2916   59.7484 O   0  0  0  0  0  0  0  0  0  0  0  0
   32.1612   35.8726   58.8789 N   0  0  0  0  0  0  0  0  0  0  0  0
   31.0119   31.7451   56.9073 H   0  0  0  0  0  0  0  0  0  0  0  0
   30.6005   32.8659   55.5872 H   0  0  0  0  0  0  0  0  0  0  0  0
   32.2774   32.3034   55.7871 H   0  0  0  0  0  0  0  0  0  0  0  0
   31.1296   32.8111   58.9197 H   0  0  0  0  0  0  0  0  0  0  0  0
   31.1474   33.7031   61.1914 H   0  0  0  0  0  0  0  0  0  0  0  0
   32.2034   37.6564   63.5839 H   0  0  0  0  0  0  0  0  0  0  0  0
   31.5935   36.7655   65.9770 H   0  0  0  0  0  0  0  0  0  0  0  0
   30.7695   34.2411   65.7300 H   0  0  0  0  0  0  0  0  0  0  0  0
   33.0032   37.6786   56.9482 H   0  0  0  0  0  0  0  0  0  0  0  0
   33.8911   40.2122   56.7264 H   0  0  0  0  0  0  0  0  0  0  0  0
   33.9500   41.2274   59.1412 H   0  0  0  0  0  0  0  0  0  0  0  0
  1  2  1  0  0  0  0
  1 21  1  0  0  0  0
  1 22  1  0  0  0  0
  1 23  1  0  0  0  0
  2  3  2  0  0  0  0
  2  4  1  0  0  0  0
  4  5  1  0  0  0  0
  4 24  1  0  0  0  0
  5 20  2  0  0  0  0
  5  6  1  0  0  0  0
  6  7  2  0  0  0  0
  6 25  1  0  0  0  0
  7  8  1  0  0  0  0
  7 13  1  0  0  0  0
  8 12  1  0  0  0  0
  8  9  1  0  0  0  0
  9 10  2  0  0  0  0
  9 26  1  0  0  0  0
 10 11  1  0  0  0  0
 10 27  1  0  0  0  0
 11 12  2  0  0  0  0
 11 28  1  0  0  0  0
 13 14  2  0  0  0  0
 14 15  1  0  0  0  0
 14 20  1  0  0  0  0
 15 19  1  0  0  0  0
 15 16  2  0  0  0  0
 16 17  1  0  0  0  0
 16 29  1  0  0  0  0
 17 18  2  0  0  0  0
 17 30  1  0  0  0  0
 18 19  1  0  0  0  0
 18 31  1  0  0  0  0
M  END
$$$$
