CHEMBL312449      none
 OpenBabel11202420153D

 27 29  0  0  0  0  0  0  0  0999 V2000
   31.5021   34.1523   60.5189 C   0  0  0  0  0  0  0  0  0  0  0  0
   32.0301   34.8161   59.2457 C   0  0  0  0  0  0  0  0  0  0  0  0
   32.2529   36.2847   59.5001 C   0  0  0  0  0  0  0  0  0  0  0  0
   32.0350   36.9177   60.6270 N   0  0  0  0  0  0  0  0  0  0  0  0
   32.3299   38.1646   60.4984 N   0  0  0  0  0  0  0  0  0  0  0  0
   32.7536   38.3888   59.2729 C   0  0  0  0  0  0  0  0  0  0  0  0
   33.2180   39.5791   58.5565 C   0  0  0  0  0  0  0  0  0  0  0  0
   33.2692   40.7999   59.2025 N   0  0  0  0  0  0  0  0  0  0  0  0
   33.5850   39.4844   57.2987 N   0  0  0  0  0  0  0  0  0  0  0  0
   33.5463   38.2987   56.6382 C   0  0  0  0  0  0  0  0  0  0  0  0
   33.9456   38.2336   55.2975 C   0  0  0  0  0  0  0  0  0  0  0  0
   33.9067   37.0323   54.6258 C   0  0  0  0  0  0  0  0  0  0  0  0
   34.4028   36.9564   52.9639 Cl  0  0  0  0  0  0  0  0  0  0  0  0
   33.4734   35.8806   55.2700 C   0  0  0  0  0  0  0  0  0  0  0  0
   33.4308   34.3738   54.4089 Cl  0  0  0  0  0  0  0  0  0  0  0  0
   33.0709   35.9287   56.5893 C   0  0  0  0  0  0  0  0  0  0  0  0
   33.1083   37.1301   57.2848 C   0  0  0  0  0  0  0  0  0  0  0  0
   32.7115   37.1864   58.6106 N   0  0  0  0  0  0  0  0  0  0  0  0
   32.2292   34.2757   61.3215 H   0  0  0  0  0  0  0  0  0  0  0  0
   30.5598   34.6180   60.8077 H   0  0  0  0  0  0  0  0  0  0  0  0
   31.3410   33.0900   60.3349 H   0  0  0  0  0  0  0  0  0  0  0  0
   31.3029   34.6927   58.4432 H   0  0  0  0  0  0  0  0  0  0  0  0
   32.9724   34.3503   58.9571 H   0  0  0  0  0  0  0  0  0  0  0  0
   32.9974   40.8690   60.1311 H   0  0  0  0  0  0  0  0  0  0  0  0
   33.5769   41.5876   58.7273 H   0  0  0  0  0  0  0  0  0  0  0  0
   34.2844   39.1251   54.7907 H   0  0  0  0  0  0  0  0  0  0  0  0
   32.7309   35.0301   57.0827 H   0  0  0  0  0  0  0  0  0  0  0  0
  1  2  1  0  0  0  0
  1 19  1  0  0  0  0
  1 20  1  0  0  0  0
  1 21  1  0  0  0  0
  2  3  1  0  0  0  0
  2 22  1  0  0  0  0
  2 23  1  0  0  0  0
  3 18  1  0  0  0  0
  3  4  2  0  0  0  0
  4  5  1  0  0  0  0
  5  6  2  0  0  0  0
  6 18  1  0  0  0  0
  6  7  1  0  0  0  0
  7  8  1  0  0  0  0
  7  9  2  0  0  0  0
  8 24  1  0  0  0  0
  8 25  1  0  0  0  0
  9 10  1  0  0  0  0
 10 17  2  0  0  0  0
 10 11  1  0  0  0  0
 11 12  2  0  0  0  0
 11 26  1  0  0  0  0
 12 13  1  0  0  0  0
 12 14  1  0  0  0  0
 14 15  1  0  0  0  0
 14 16  2  0  0  0  0
 16 17  1  0  0  0  0
 16 27  1  0  0  0  0
 17 18  1  0  0  0  0
M  END
$$$$
