CHEMBL267200      none
 OpenBabel11202420153D

 35 38  0  0  0  0  0  0  0  0999 V2000
   33.7876   39.5402   56.5435 N   0  0  0  0  0  0  0  0  0  0  0  0
   33.4694   38.3073   57.0866 C   0  0  0  0  0  0  0  0  0  0  0  0
   32.8901   38.2657   58.2796 N   0  0  0  0  0  0  0  0  0  0  0  0
   32.5645   37.1077   58.8453 C   0  0  0  0  0  0  0  0  0  0  0  0
   31.9181   37.0701   60.1768 C   0  0  0  0  0  0  0  0  0  0  0  0
   32.5378   37.0134   61.3385 N   0  0  0  0  0  0  0  0  0  0  0  0
   31.5675   37.0007   62.3485 N   0  0  0  0  0  0  0  0  0  0  0  0
   30.3505   37.0513   61.7641 C   0  0  0  0  0  0  0  0  0  0  0  0
   30.5309   37.0948   60.4269 C   0  0  0  0  0  0  0  0  0  0  0  0
   32.8543   35.9161   58.1501 C   0  0  0  0  0  0  0  0  0  0  0  0
   32.6591   34.5429   58.4121 C   0  0  0  0  0  0  0  0  0  0  0  0
   33.1178   33.8602   57.4020 N   0  0  0  0  0  0  0  0  0  0  0  0
   33.6266   34.7339   56.4327 N   0  0  0  0  0  0  0  0  0  0  0  0
   34.2287   34.3429   55.1556 C   0  0  0  0  0  0  0  0  0  0  0  0
   33.6837   35.2162   54.0550 C   0  0  0  0  0  0  0  0  0  0  0  0
   34.3191   36.4003   53.7337 C   0  0  0  0  0  0  0  0  0  0  0  0
   33.8230   37.1988   52.7197 C   0  0  0  0  0  0  0  0  0  0  0  0
   32.6840   36.8195   52.0345 C   0  0  0  0  0  0  0  0  0  0  0  0
   32.0434   35.6381   52.3581 C   0  0  0  0  0  0  0  0  0  0  0  0
   32.5428   34.8349   53.3690 C   0  0  0  0  0  0  0  0  0  0  0  0
   31.9178   33.6798   53.6858 F   0  0  0  0  0  0  0  0  0  0  0  0
   33.4659   36.0113   56.8828 C   0  0  0  0  0  0  0  0  0  0  0  0
   33.7550   37.2155   56.3971 N   0  0  0  0  0  0  0  0  0  0  0  0
   33.5865   40.3526   57.0339 H   0  0  0  0  0  0  0  0  0  0  0  0
   34.2115   39.5916   55.6726 H   0  0  0  0  0  0  0  0  0  0  0  0
   31.7395   36.9619   63.3023 H   0  0  0  0  0  0  0  0  0  0  0  0
   29.3999   37.0556   62.2768 H   0  0  0  0  0  0  0  0  0  0  0  0
   29.7510   37.1404   59.6812 H   0  0  0  0  0  0  0  0  0  0  0  0
   32.2093   34.1280   59.3019 H   0  0  0  0  0  0  0  0  0  0  0  0
   35.3105   34.4624   55.2123 H   0  0  0  0  0  0  0  0  0  0  0  0
   33.9888   33.3006   54.9450 H   0  0  0  0  0  0  0  0  0  0  0  0
   35.2063   36.7001   54.2718 H   0  0  0  0  0  0  0  0  0  0  0  0
   34.3228   38.1219   52.4663 H   0  0  0  0  0  0  0  0  0  0  0  0
   32.2945   37.4464   51.2460 H   0  0  0  0  0  0  0  0  0  0  0  0
   31.1539   35.3417   51.8222 H   0  0  0  0  0  0  0  0  0  0  0  0
  1  2  1  0  0  0  0
  1 24  1  0  0  0  0
  1 25  1  0  0  0  0
  2 23  2  0  0  0  0
  2  3  1  0  0  0  0
  3  4  2  0  0  0  0
  4  5  1  0  0  0  0
  4 10  1  0  0  0  0
  5  9  1  0  0  0  0
  5  6  2  0  0  0  0
  6  7  1  0  0  0  0
  7  8  1  0  0  0  0
  7 26  1  0  0  0  0
  8  9  2  0  0  0  0
  8 27  1  0  0  0  0
  9 28  1  0  0  0  0
 10 22  2  0  0  0  0
 10 11  1  0  0  0  0
 11 12  2  0  0  0  0
 11 29  1  0  0  0  0
 12 13  1  0  0  0  0
 13 14  1  0  0  0  0
 13 22  1  0  0  0  0
 14 15  1  0  0  0  0
 14 30  1  0  0  0  0
 14 31  1  0  0  0  0
 15 20  2  0  0  0  0
 15 16  1  0  0  0  0
 16 17  2  0  0  0  0
 16 32  1  0  0  0  0
 17 18  1  0  0  0  0
 17 33  1  0  0  0  0
 18 19  2  0  0  0  0
 18 34  1  0  0  0  0
 19 20  1  0  0  0  0
 19 35  1  0  0  0  0
 20 21  1  0  0  0  0
 22 23  1  0  0  0  0
M  END
$$$$
