CHEMBL360124      none
 OpenBabel11202420153D

 36 39  0  0  0  0  0  0  0  0999 V2000
   33.8872   36.2109   53.8859 C   0  0  0  0  0  0  0  0  0  0  0  0
   33.5544   36.7264   55.2622 C   0  0  0  0  0  0  0  0  0  0  0  0
   33.6335   38.0815   55.5278 C   0  0  0  0  0  0  0  0  0  0  0  0
   33.3281   38.5601   56.7900 C   0  0  0  0  0  0  0  0  0  0  0  0
   32.9447   37.6872   57.7851 C   0  0  0  0  0  0  0  0  0  0  0  0
   32.5634   37.9015   59.2302 C   0  0  0  0  0  0  0  0  0  0  0  0
   32.2441   36.5367   59.7813 C   0  0  0  0  0  0  0  0  0  0  0  0
   31.8351   36.0858   61.0315 C   0  0  0  0  0  0  0  0  0  0  0  0
   31.6248   37.0402   62.1473 C   0  0  0  0  0  0  0  0  0  0  0  0
   32.3640   36.9163   63.3223 C   0  0  0  0  0  0  0  0  0  0  0  0
   32.1679   37.8104   64.3552 C   0  0  0  0  0  0  0  0  0  0  0  0
   31.2316   38.8212   64.2302 C   0  0  0  0  0  0  0  0  0  0  0  0
   30.4916   38.9457   63.0681 C   0  0  0  0  0  0  0  0  0  0  0  0
   30.6833   38.0608   62.0267 C   0  0  0  0  0  0  0  0  0  0  0  0
   31.6352   34.7790   61.2084 N   0  0  0  0  0  0  0  0  0  0  0  0
   31.8222   33.9264   60.2131 C   0  0  0  0  0  0  0  0  0  0  0  0
   31.6042   32.5778   60.4363 N   0  0  0  0  0  0  0  0  0  0  0  0
   32.2107   34.3223   59.0109 N   0  0  0  0  0  0  0  0  0  0  0  0
   32.4310   35.6125   58.7564 C   0  0  0  0  0  0  0  0  0  0  0  0
   32.8622   36.3201   57.5278 C   0  0  0  0  0  0  0  0  0  0  0  0
   33.1716   35.8451   56.2519 C   0  0  0  0  0  0  0  0  0  0  0  0
   34.9499   35.9745   53.8335 H   0  0  0  0  0  0  0  0  0  0  0  0
   33.3046   35.3121   53.6838 H   0  0  0  0  0  0  0  0  0  0  0  0
   33.6478   36.9733   53.1445 H   0  0  0  0  0  0  0  0  0  0  0  0
   33.9337   38.7671   54.7492 H   0  0  0  0  0  0  0  0  0  0  0  0
   33.3905   39.6186   56.9954 H   0  0  0  0  0  0  0  0  0  0  0  0
   33.3965   38.3433   59.7768 H   0  0  0  0  0  0  0  0  0  0  0  0
   31.6866   38.5457   59.2956 H   0  0  0  0  0  0  0  0  0  0  0  0
   33.0917   36.1247   63.4229 H   0  0  0  0  0  0  0  0  0  0  0  0
   32.7432   37.7181   65.2646 H   0  0  0  0  0  0  0  0  0  0  0  0
   31.0784   39.5159   65.0428 H   0  0  0  0  0  0  0  0  0  0  0  0
   29.7625   39.7371   62.9757 H   0  0  0  0  0  0  0  0  0  0  0  0
   30.1052   38.1591   61.1197 H   0  0  0  0  0  0  0  0  0  0  0  0
   31.7363   31.9397   59.7179 H   0  0  0  0  0  0  0  0  0  0  0  0
   31.3193   32.2709   61.3113 H   0  0  0  0  0  0  0  0  0  0  0  0
   33.1116   34.7878   56.0399 H   0  0  0  0  0  0  0  0  0  0  0  0
  1  2  1  0  0  0  0
  1 22  1  0  0  0  0
  1 23  1  0  0  0  0
  1 24  1  0  0  0  0
  2 21  2  0  0  0  0
  2  3  1  0  0  0  0
  3  4  2  0  0  0  0
  3 25  1  0  0  0  0
  4  5  1  0  0  0  0
  4 26  1  0  0  0  0
  5 20  2  0  0  0  0
  5  6  1  0  0  0  0
  6  7  1  0  0  0  0
  6 27  1  0  0  0  0
  6 28  1  0  0  0  0
  7 19  2  0  0  0  0
  7  8  1  0  0  0  0
  8  9  1  0  0  0  0
  8 15  2  0  0  0  0
  9 14  2  0  0  0  0
  9 10  1  0  0  0  0
 10 11  2  0  0  0  0
 10 29  1  0  0  0  0
 11 12  1  0  0  0  0
 11 30  1  0  0  0  0
 12 13  2  0  0  0  0
 12 31  1  0  0  0  0
 13 14  1  0  0  0  0
 13 32  1  0  0  0  0
 14 33  1  0  0  0  0
 15 16  1  0  0  0  0
 16 17  1  0  0  0  0
 16 18  2  0  0  0  0
 17 34  1  0  0  0  0
 17 35  1  0  0  0  0
 18 19  1  0  0  0  0
 19 20  1  0  0  0  0
 20 21  1  0  0  0  0
 21 36  1  0  0  0  0
M  END
$$$$
