CHEMBL16687      none
 OpenBabel11202420153D

 28 31  0  0  0  0  0  0  0  0999 V2000
   33.2889   40.8364   58.9895 N   0  0  0  0  0  0  0  0  0  0  0  0
   33.2711   39.6183   58.3518 C   0  0  0  0  0  0  0  0  0  0  0  0
   33.6369   39.5631   57.0975 N   0  0  0  0  0  0  0  0  0  0  0  0
   33.6460   38.3996   56.4027 C   0  0  0  0  0  0  0  0  0  0  0  0
   34.0397   38.3546   55.0629 C   0  0  0  0  0  0  0  0  0  0  0  0
   34.0376   37.1540   54.3898 C   0  0  0  0  0  0  0  0  0  0  0  0
   33.6470   35.9824   55.0264 C   0  0  0  0  0  0  0  0  0  0  0  0
   33.6534   34.4832   54.1510 Cl  0  0  0  0  0  0  0  0  0  0  0  0
   33.2537   36.0011   56.3481 C   0  0  0  0  0  0  0  0  0  0  0  0
   33.2493   37.2055   57.0472 C   0  0  0  0  0  0  0  0  0  0  0  0
   32.8419   37.2864   58.4550 C   0  0  0  0  0  0  0  0  0  0  0  0
   32.4318   36.4093   59.3445 N   0  0  0  0  0  0  0  0  0  0  0  0
   32.1837   37.0282   60.5056 C   0  0  0  0  0  0  0  0  0  0  0  0
   31.7021   36.3724   61.7394 C   0  0  0  0  0  0  0  0  0  0  0  0
   30.4016   36.1963   62.0938 C   0  0  0  0  0  0  0  0  0  0  0  0
   30.4059   35.5286   63.3346 C   0  0  0  0  0  0  0  0  0  0  0  0
   31.6954   35.3397   63.6768 C   0  0  0  0  0  0  0  0  0  0  0  0
   32.4757   35.8506   62.7110 O   0  0  0  0  0  0  0  0  0  0  0  0
   32.4428   38.3157   60.3755 N   0  0  0  0  0  0  0  0  0  0  0  0
   32.8720   38.5164   59.0566 N   0  0  0  0  0  0  0  0  0  0  0  0
   33.0220   40.9009   59.9198 H   0  0  0  0  0  0  0  0  0  0  0  0
   33.5685   41.6314   58.5090 H   0  0  0  0  0  0  0  0  0  0  0  0
   34.3455   39.2586   54.5573 H   0  0  0  0  0  0  0  0  0  0  0  0
   34.3425   37.1224   53.3542 H   0  0  0  0  0  0  0  0  0  0  0  0
   32.9508   35.0875   56.8378 H   0  0  0  0  0  0  0  0  0  0  0  0
   29.5329   36.5061   61.5317 H   0  0  0  0  0  0  0  0  0  0  0  0
   29.5394   35.2284   63.9052 H   0  0  0  0  0  0  0  0  0  0  0  0
   32.0435   34.8573   64.5782 H   0  0  0  0  0  0  0  0  0  0  0  0
  1  2  1  0  0  0  0
  1 21  1  0  0  0  0
  1 22  1  0  0  0  0
  2 20  1  0  0  0  0
  2  3  2  0  0  0  0
  3  4  1  0  0  0  0
  4 10  2  0  0  0  0
  4  5  1  0  0  0  0
  5  6  2  0  0  0  0
  5 23  1  0  0  0  0
  6  7  1  0  0  0  0
  6 24  1  0  0  0  0
  7  8  1  0  0  0  0
  7  9  2  0  0  0  0
  9 10  1  0  0  0  0
  9 25  1  0  0  0  0
 10 11  1  0  0  0  0
 11 20  1  0  0  0  0
 11 12  2  0  0  0  0
 12 13  1  0  0  0  0
 13 14  1  0  0  0  0
 13 19  2  0  0  0  0
 14 18  1  0  0  0  0
 14 15  2  0  0  0  0
 15 16  1  0  0  0  0
 15 26  1  0  0  0  0
 16 17  2  0  0  0  0
 16 27  1  0  0  0  0
 17 18  1  0  0  0  0
 17 28  1  0  0  0  0
 19 20  1  0  0  0  0
M  END
$$$$
