CHEMBL426821      none
 OpenBabel11202420153D

 38 40  0  0  0  0  0  0  0  0999 V2000
   31.7886   37.6569   65.5210 C   0  0  0  0  0  0  0  0  0  0  0  0
   32.1505   37.0001   64.1875 C   0  0  0  0  0  0  0  0  0  0  0  0
   30.9076   36.3351   63.5926 C   0  0  0  0  0  0  0  0  0  0  0  0
   31.2695   35.6781   62.2591 C   0  0  0  0  0  0  0  0  0  0  0  0
   31.7690   36.6970   61.3324 N   0  0  0  0  0  0  0  0  0  0  0  0
   32.1508   36.3470   60.0881 C   0  0  0  0  0  0  0  0  0  0  0  0
   32.0809   35.1858   59.7348 O   0  0  0  0  0  0  0  0  0  0  0  0
   32.6542   37.3741   59.1539 C   0  0  0  0  0  0  0  0  0  0  0  0
   33.0363   37.0016   57.9002 C   0  0  0  0  0  0  0  0  0  0  0  0
   33.5035   37.9258   57.0206 N   0  0  0  0  0  0  0  0  0  0  0  0
   33.9627   37.8704   55.6998 N   0  0  0  0  0  0  0  0  0  0  0  0
   34.2924   39.1049   55.3552 C   0  0  0  0  0  0  0  0  0  0  0  0
   34.8276   39.5115   54.0390 C   0  0  0  0  0  0  0  0  0  0  0  0
   35.0685   38.6859   52.9860 C   0  0  0  0  0  0  0  0  0  0  0  0
   35.5673   39.4922   51.9439 C   0  0  0  0  0  0  0  0  0  0  0  0
   35.6143   40.7557   52.4103 C   0  0  0  0  0  0  0  0  0  0  0  0
   35.1668   40.7636   53.6761 O   0  0  0  0  0  0  0  0  0  0  0  0
   34.0708   39.9242   56.3859 N   0  0  0  0  0  0  0  0  0  0  0  0
   33.5879   39.2375   57.4043 C   0  0  0  0  0  0  0  0  0  0  0  0
   33.1681   39.5980   58.7588 C   0  0  0  0  0  0  0  0  0  0  0  0
   33.2360   40.9136   59.1895 N   0  0  0  0  0  0  0  0  0  0  0  0
   32.7245   38.6537   59.5622 N   0  0  0  0  0  0  0  0  0  0  0  0
   32.6742   38.1308   65.9448 H   0  0  0  0  0  0  0  0  0  0  0  0
   31.0169   38.4093   65.3579 H   0  0  0  0  0  0  0  0  0  0  0  0
   31.4171   36.8989   66.2104 H   0  0  0  0  0  0  0  0  0  0  0  0
   32.9222   36.2477   64.3506 H   0  0  0  0  0  0  0  0  0  0  0  0
   32.5222   37.7582   63.4980 H   0  0  0  0  0  0  0  0  0  0  0  0
   30.1359   37.0873   63.4295 H   0  0  0  0  0  0  0  0  0  0  0  0
   30.5361   35.5771   64.2821 H   0  0  0  0  0  0  0  0  0  0  0  0
   30.3841   35.2043   61.8354 H   0  0  0  0  0  0  0  0  0  0  0  0
   32.0413   34.9258   62.4223 H   0  0  0  0  0  0  0  0  0  0  0  0
   31.8248   37.6234   61.6143 H   0  0  0  0  0  0  0  0  0  0  0  0
   32.9672   35.9654   57.6039 H   0  0  0  0  0  0  0  0  0  0  0  0
   34.9063   37.6186   52.9538 H   0  0  0  0  0  0  0  0  0  0  0  0
   35.8606   39.1600   50.9591 H   0  0  0  0  0  0  0  0  0  0  0  0
   35.9560   41.6186   51.8579 H   0  0  0  0  0  0  0  0  0  0  0  0
   33.5636   41.6034   58.5915 H   0  0  0  0  0  0  0  0  0  0  0  0
   32.9558   41.1445   60.0890 H   0  0  0  0  0  0  0  0  0  0  0  0
  1  2  1  0  0  0  0
  1 23  1  0  0  0  0
  1 24  1  0  0  0  0
  1 25  1  0  0  0  0
  2  3  1  0  0  0  0
  2 26  1  0  0  0  0
  2 27  1  0  0  0  0
  3  4  1  0  0  0  0
  3 28  1  0  0  0  0
  3 29  1  0  0  0  0
  4  5  1  0  0  0  0
  4 30  1  0  0  0  0
  4 31  1  0  0  0  0
  5  6  1  0  0  0  0
  5 32  1  0  0  0  0
  6  7  2  0  0  0  0
  6  8  1  0  0  0  0
  8 22  1  0  0  0  0
  8  9  2  0  0  0  0
  9 10  1  0  0  0  0
  9 33  1  0  0  0  0
 10 19  1  0  0  0  0
 10 11  1  0  0  0  0
 11 12  2  0  0  0  0
 12 13  1  0  0  0  0
 12 18  1  0  0  0  0
 13 17  1  0  0  0  0
 13 14  2  0  0  0  0
 14 15  1  0  0  0  0
 14 34  1  0  0  0  0
 15 16  2  0  0  0  0
 15 35  1  0  0  0  0
 16 17  1  0  0  0  0
 16 36  1  0  0  0  0
 18 19  2  0  0  0  0
 19 20  1  0  0  0  0
 20 21  1  0  0  0  0
 20 22  2  0  0  0  0
 21 37  1  0  0  0  0
 21 38  1  0  0  0  0
M  END
$$$$
