CHEMBL398272      none
 OpenBabel11202420153D

 48 51  0  0  1  0  0  0  0  0999 V2000
   32.9818   32.0136   73.0393 C   0  0  0  0  0  0  0  0  0  0  0  0
   32.0039   32.2332   71.9654 N   0  3  1  0  0  0  0  0  0  0  0  0
   31.0790   32.0130   72.3032 H   0  0  0  0  0  0  0  0  0  0  0  0
   32.0485   33.6392   71.5427 C   0  0  0  0  0  0  0  0  0  0  0  0
   31.0167   33.8726   70.4370 C   0  0  0  0  0  0  0  0  0  0  0  0
   31.3144   32.9913   69.2990 N   0  0  0  0  0  0  0  0  0  0  0  0
   30.3777   33.2263   68.1921 C   0  0  0  0  0  0  0  0  0  0  0  0
   30.8063   34.4489   67.4224 C   0  0  0  0  0  0  0  0  0  0  0  0
   31.3904   35.3482   67.9889 O   0  0  0  0  0  0  0  0  0  0  0  0
   30.5406   34.5430   66.1044 N   0  0  0  0  0  0  0  0  0  0  0  0
   30.9363   35.6715   65.3938 C   0  0  0  0  0  0  0  0  0  0  0  0
   30.6663   35.7774   64.0310 C   0  0  0  0  0  0  0  0  0  0  0  0
   31.0874   36.9262   63.3571 C   0  0  0  0  0  0  0  0  0  0  0  0
   30.8297   37.0832   61.9098 C   0  0  0  0  0  0  0  0  0  0  0  0
   29.8156   36.5825   61.2642 N   0  0  0  0  0  0  0  0  0  0  0  0
   29.7482   36.8247   59.9777 C   0  0  0  0  0  0  0  0  0  0  0  0
   30.7411   37.5674   59.4708 C   0  0  0  0  0  0  0  0  0  0  0  0
   31.8412   37.9842   60.7833 S   0  0  0  0  0  0  0  0  0  0  0  0
   31.7203   37.8809   64.0384 N   0  0  0  0  0  0  0  0  0  0  0  0
   31.9590   37.7430   65.3366 C   0  0  0  0  0  0  0  0  0  0  0  0
   32.6674   38.8197   66.0553 C   0  0  0  0  0  0  0  0  0  0  0  0
   32.2469   40.1080   66.1797 C   0  0  0  0  0  0  0  0  0  0  0  0
   33.2230   40.7813   66.9382 C   0  0  0  0  0  0  0  0  0  0  0  0
   34.1818   39.8813   67.2372 C   0  0  0  0  0  0  0  0  0  0  0  0
   33.8402   38.6970   66.7074 O   0  0  0  0  0  0  0  0  0  0  0  0
   31.5764   36.6612   66.0061 N   0  0  0  0  0  0  0  0  0  0  0  0
   31.2977   31.5811   69.7128 C   0  0  0  0  0  0  0  0  0  0  0  0
   32.3272   31.3665   70.8244 C   0  0  0  0  0  0  0  0  0  0  0  0
   32.7413   32.6558   73.8866 H   0  0  0  0  0  0  0  0  0  0  0  0
   32.9488   30.9704   73.3532 H   0  0  0  0  0  0  0  0  0  0  0  0
   33.9812   32.2521   72.6750 H   0  0  0  0  0  0  0  0  0  0  0  0
   33.0441   33.8738   71.1661 H   0  0  0  0  0  0  0  0  0  0  0  0
   31.8211   34.2817   72.3934 H   0  0  0  0  0  0  0  0  0  0  0  0
   31.0601   34.9123   70.1128 H   0  0  0  0  0  0  0  0  0  0  0  0
   30.0195   33.6511   70.8174 H   0  0  0  0  0  0  0  0  0  0  0  0
   29.3752   33.3811   68.5912 H   0  0  0  0  0  0  0  0  0  0  0  0
   30.3751   32.3616   67.5285 H   0  0  0  0  0  0  0  0  0  0  0  0
   30.0734   33.8237   65.6514 H   0  0  0  0  0  0  0  0  0  0  0  0
   30.1478   34.9881   63.5072 H   0  0  0  0  0  0  0  0  0  0  0  0
   28.9420   36.4492   59.3649 H   0  0  0  0  0  0  0  0  0  0  0  0
   30.8466   37.8633   58.4375 H   0  0  0  0  0  0  0  0  0  0  0  0
   31.3399   40.5317   65.7749 H   0  0  0  0  0  0  0  0  0  0  0  0
   33.2072   41.8221   67.2258 H   0  0  0  0  0  0  0  0  0  0  0  0
   35.0744   40.0798   67.8120 H   0  0  0  0  0  0  0  0  0  0  0  0
   30.3052   31.3218   70.0812 H   0  0  0  0  0  0  0  0  0  0  0  0
   31.5461   30.9490   68.8602 H   0  0  0  0  0  0  0  0  0  0  0  0
   33.3214   31.6128   70.4514 H   0  0  0  0  0  0  0  0  0  0  0  0
   32.3065   30.3242   71.1426 H   0  0  0  0  0  0  0  0  0  0  0  0
  1  2  1  0  0  0  0
  1 29  1  0  0  0  0
  1 30  1  0  0  0  0
  1 31  1  0  0  0  0
  2  3  1  1  0  0  0
  2 28  1  0  0  0  0
  2  4  1  0  0  0  0
  4  5  1  0  0  0  0
  4 32  1  0  0  0  0
  4 33  1  0  0  0  0
  5  6  1  0  0  0  0
  5 34  1  0  0  0  0
  5 35  1  0  0  0  0
  6  7  1  0  0  0  0
  6 27  1  0  0  0  0
  7  8  1  0  0  0  0
  7 36  1  0  0  0  0
  7 37  1  0  0  0  0
  8  9  2  0  0  0  0
  8 10  1  0  0  0  0
 10 11  1  0  0  0  0
 10 38  1  0  0  0  0
 11 26  2  0  0  0  0
 11 12  1  0  0  0  0
 12 13  2  0  0  0  0
 12 39  1  0  0  0  0
 13 14  1  0  0  0  0
 13 19  1  0  0  0  0
 14 18  1  0  0  0  0
 14 15  2  0  0  0  0
 15 16  1  0  0  0  0
 16 17  2  0  0  0  0
 16 40  1  0  0  0  0
 17 18  1  0  0  0  0
 17 41  1  0  0  0  0
 19 20  2  0  0  0  0
 20 21  1  0  0  0  0
 20 26  1  0  0  0  0
 21 25  1  0  0  0  0
 21 22  2  0  0  0  0
 22 23  1  0  0  0  0
 22 42  1  0  0  0  0
 23 24  2  0  0  0  0
 23 43  1  0  0  0  0
 24 25  1  0  0  0  0
 24 44  1  0  0  0  0
 27 28  1  0  0  0  0
 27 45  1  0  0  0  0
 27 46  1  0  0  0  0
 28 47  1  0  0  0  0
 28 48  1  0  0  0  0
M  CHG  1   2   1
M  END
$$$$
