CHEMBL190      none
 OpenBabel11202420153D

 21 22  0  0  0  0  0  0  0  0999 V2000
   33.2089   40.1892   58.7505 C   0  0  0  0  0  0  0  0  0  0  0  0
   33.2262   38.9068   58.0424 N   0  0  0  0  0  0  0  0  0  0  0  0
   32.8676   37.7804   58.6957 C   0  0  0  0  0  0  0  0  0  0  0  0
   32.5306   37.8194   59.8649 O   0  0  0  0  0  0  0  0  0  0  0  0
   32.8927   36.5117   57.9660 C   0  0  0  0  0  0  0  0  0  0  0  0
   33.2852   36.5257   56.6329 C   0  0  0  0  0  0  0  0  0  0  0  0
   33.2206   35.2390   56.2003 N   0  0  0  0  0  0  0  0  0  0  0  0
   32.8000   34.4725   57.2479 C   0  0  0  0  0  0  0  0  0  0  0  0
   32.6121   35.2271   58.2919 N   0  0  0  0  0  0  0  0  0  0  0  0
   33.6334   37.7220   56.0489 N   0  0  0  0  0  0  0  0  0  0  0  0
   34.0486   37.7477   54.6442 C   0  0  0  0  0  0  0  0  0  0  0  0
   33.5982   38.8676   56.7522 C   0  0  0  0  0  0  0  0  0  0  0  0
   33.9137   39.9044   56.2007 O   0  0  0  0  0  0  0  0  0  0  0  0
   32.8840   40.0319   59.7790 H   0  0  0  0  0  0  0  0  0  0  0  0
   34.2104   40.6193   58.7475 H   0  0  0  0  0  0  0  0  0  0  0  0
   32.5193   40.8703   58.2518 H   0  0  0  0  0  0  0  0  0  0  0  0
   33.4345   34.9229   55.3085 H   0  0  0  0  0  0  0  0  0  0  0  0
   32.6502   33.4034   57.2170 H   0  0  0  0  0  0  0  0  0  0  0  0
   34.2860   38.7712   54.3541 H   0  0  0  0  0  0  0  0  0  0  0  0
   34.9298   37.1195   54.5142 H   0  0  0  0  0  0  0  0  0  0  0  0
   33.2389   37.3714   54.0190 H   0  0  0  0  0  0  0  0  0  0  0  0
  1  2  1  0  0  0  0
  1 14  1  0  0  0  0
  1 15  1  0  0  0  0
  1 16  1  0  0  0  0
  2 12  1  0  0  0  0
  2  3  1  0  0  0  0
  3  4  2  0  0  0  0
  3  5  1  0  0  0  0
  5  9  1  0  0  0  0
  5  6  2  0  0  0  0
  6  7  1  0  0  0  0
  6 10  1  0  0  0  0
  7  8  1  0  0  0  0
  7 17  1  0  0  0  0
  8  9  2  0  0  0  0
  8 18  1  0  0  0  0
 10 11  1  0  0  0  0
 10 12  1  0  0  0  0
 11 19  1  0  0  0  0
 11 20  1  0  0  0  0
 11 21  1  0  0  0  0
 12 13  2  0  0  0  0
M  END
$$$$
