CHEMBL334873      none
 OpenBabel11202420153D

 37 39  0  0  0  0  0  0  0  0999 V2000
   33.3389   36.8326   64.7915 C   0  0  0  0  0  0  0  0  0  0  0  0
   32.3817   36.7773   64.1140 C   0  0  0  0  0  0  0  0  0  0  0  0
   31.1816   36.7083   63.2643 C   0  0  0  0  0  0  0  0  0  0  0  0
   31.5681   36.3277   61.9034 N   0  0  0  0  0  0  0  0  0  0  0  0
   31.8703   37.2884   61.0058 C   0  0  0  0  0  0  0  0  0  0  0  0
   31.8227   38.4641   61.3226 O   0  0  0  0  0  0  0  0  0  0  0  0
   32.2471   36.9176   59.7004 C   0  0  0  0  0  0  0  0  0  0  0  0
   32.2932   35.5667   59.3649 C   0  0  0  0  0  0  0  0  0  0  0  0
   32.6716   35.4779   58.0920 N   0  0  0  0  0  0  0  0  0  0  0  0
   32.8695   36.6886   57.5953 C   0  0  0  0  0  0  0  0  0  0  0  0
   33.2920   36.9848   56.2268 C   0  0  0  0  0  0  0  0  0  0  0  0
   34.0243   38.0895   55.9707 C   0  0  0  0  0  0  0  0  0  0  0  0
   34.4487   38.3871   54.5957 C   0  0  0  0  0  0  0  0  0  0  0  0
   34.5014   37.4527   53.6076 C   0  0  0  0  0  0  0  0  0  0  0  0
   35.0357   38.1467   52.1455 S   0  0  0  0  0  0  0  0  0  0  0  0
   35.1957   39.7367   52.8708 C   0  0  0  0  0  0  0  0  0  0  0  0
   34.8471   39.7028   54.1521 C   0  0  0  0  0  0  0  0  0  0  0  0
   32.6162   37.6180   58.5646 N   0  0  0  0  0  0  0  0  0  0  0  0
   32.7157   39.0731   58.4283 C   0  0  0  0  0  0  0  0  0  0  0  0
   31.9653   34.6278   60.3314 N   0  0  0  0  0  0  0  0  0  0  0  0
   32.0045   33.1997   60.0071 C   0  0  0  0  0  0  0  0  0  0  0  0
   31.6106   35.0272   61.5671 C   0  0  0  0  0  0  0  0  0  0  0  0
   31.3268   34.1896   62.4018 O   0  0  0  0  0  0  0  0  0  0  0  0
   34.1949   36.8820   65.3976 H   0  0  0  0  0  0  0  0  0  0  0  0
   30.6940   37.6829   63.2445 H   0  0  0  0  0  0  0  0  0  0  0  0
   30.4932   35.9657   63.6677 H   0  0  0  0  0  0  0  0  0  0  0  0
   33.0181   36.3196   55.4213 H   0  0  0  0  0  0  0  0  0  0  0  0
   34.2981   38.7547   56.7762 H   0  0  0  0  0  0  0  0  0  0  0  0
   34.2400   36.4123   53.7330 H   0  0  0  0  0  0  0  0  0  0  0  0
   35.5268   40.6211   52.3468 H   0  0  0  0  0  0  0  0  0  0  0  0
   34.8634   40.5691   54.7968 H   0  0  0  0  0  0  0  0  0  0  0  0
   33.7241   39.3944   58.6896 H   0  0  0  0  0  0  0  0  0  0  0  0
   32.4995   39.3573   57.3984 H   0  0  0  0  0  0  0  0  0  0  0  0
   31.9980   39.5507   59.0953 H   0  0  0  0  0  0  0  0  0  0  0  0
   32.9977   32.8055   60.2215 H   0  0  0  0  0  0  0  0  0  0  0  0
   31.2657   32.6701   60.6087 H   0  0  0  0  0  0  0  0  0  0  0  0
   31.7789   33.0608   58.9497 H   0  0  0  0  0  0  0  0  0  0  0  0
  1  2  3  0  0  0  0
  1 24  1  0  0  0  0
  2  3  1  0  0  0  0
  3  4  1  0  0  0  0
  3 25  1  0  0  0  0
  3 26  1  0  0  0  0
  4 22  1  0  0  0  0
  4  5  1  0  0  0  0
  5  6  2  0  0  0  0
  5  7  1  0  0  0  0
  7 18  1  0  0  0  0
  7  8  2  0  0  0  0
  8  9  1  0  0  0  0
  8 20  1  0  0  0  0
  9 10  2  0  0  0  0
 10 11  1  0  0  0  0
 10 18  1  0  0  0  0
 11 12  2  0  0  0  0
 11 27  1  0  0  0  0
 12 13  1  0  0  0  0
 12 28  1  0  0  0  0
 13 17  1  0  0  0  0
 13 14  2  0  0  0  0
 14 15  1  0  0  0  0
 14 29  1  0  0  0  0
 15 16  1  0  0  0  0
 16 17  2  0  0  0  0
 16 30  1  0  0  0  0
 17 31  1  0  0  0  0
 18 19  1  0  0  0  0
 19 32  1  0  0  0  0
 19 33  1  0  0  0  0
 19 34  1  0  0  0  0
 20 21  1  0  0  0  0
 20 22  1  0  0  0  0
 21 35  1  0  0  0  0
 21 36  1  0  0  0  0
 21 37  1  0  0  0  0
 22 23  2  0  0  0  0
M  END
$$$$
