CHEMBL257982      none
 OpenBabel11202420153D

 37 40  0  0  0  0  0  0  0  0999 V2000
   32.2944   33.1560   57.1128 N   0  0  0  0  0  0  0  0  0  0  0  0
   32.4619   34.4401   57.6022 C   0  0  0  0  0  0  0  0  0  0  0  0
   32.9655   35.3683   56.7992 N   0  0  0  0  0  0  0  0  0  0  0  0
   33.1468   36.6157   57.2199 C   0  0  0  0  0  0  0  0  0  0  0  0
   33.7104   37.6463   56.3163 C   0  0  0  0  0  0  0  0  0  0  0  0
   34.6018   37.2726   55.3127 C   0  0  0  0  0  0  0  0  0  0  0  0
   35.1201   38.2472   54.4761 C   0  0  0  0  0  0  0  0  0  0  0  0
   34.7293   39.5634   54.6714 C   0  0  0  0  0  0  0  0  0  0  0  0
   33.8441   39.8644   55.6923 C   0  0  0  0  0  0  0  0  0  0  0  0
   33.3615   38.9179   56.4695 N   0  0  0  0  0  0  0  0  0  0  0  0
   32.7962   36.9340   58.5466 C   0  0  0  0  0  0  0  0  0  0  0  0
   32.8446   38.1061   59.3314 C   0  0  0  0  0  0  0  0  0  0  0  0
   32.3849   37.8286   60.5180 N   0  0  0  0  0  0  0  0  0  0  0  0
   32.0046   36.4820   60.5754 N   0  0  0  0  0  0  0  0  0  0  0  0
   31.4426   35.7976   61.7425 C   0  0  0  0  0  0  0  0  0  0  0  0
   31.3320   36.7689   62.8894 C   0  0  0  0  0  0  0  0  0  0  0  0
   30.8290   38.0378   62.6746 C   0  0  0  0  0  0  0  0  0  0  0  0
   30.7217   38.9271   63.7279 C   0  0  0  0  0  0  0  0  0  0  0  0
   31.1293   38.5520   64.9946 C   0  0  0  0  0  0  0  0  0  0  0  0
   31.6376   37.2852   65.2107 C   0  0  0  0  0  0  0  0  0  0  0  0
   31.7398   36.3920   64.1581 C   0  0  0  0  0  0  0  0  0  0  0  0
   32.2366   35.1534   64.3684 F   0  0  0  0  0  0  0  0  0  0  0  0
   32.2593   35.9141   59.3614 C   0  0  0  0  0  0  0  0  0  0  0  0
   32.1143   34.6948   58.8526 N   0  0  0  0  0  0  0  0  0  0  0  0
   32.5436   32.9490   56.1985 H   0  0  0  0  0  0  0  0  0  0  0  0
   31.9277   32.4632   57.6842 H   0  0  0  0  0  0  0  0  0  0  0  0
   34.8847   36.2377   55.1891 H   0  0  0  0  0  0  0  0  0  0  0  0
   35.8127   37.9879   53.6890 H   0  0  0  0  0  0  0  0  0  0  0  0
   35.1153   40.3467   54.0360 H   0  0  0  0  0  0  0  0  0  0  0  0
   33.5412   40.8890   55.8498 H   0  0  0  0  0  0  0  0  0  0  0  0
   33.2023   39.0709   59.0031 H   0  0  0  0  0  0  0  0  0  0  0  0
   30.4534   35.4119   61.4963 H   0  0  0  0  0  0  0  0  0  0  0  0
   32.0940   34.9714   62.0277 H   0  0  0  0  0  0  0  0  0  0  0  0
   30.5154   38.3335   61.6844 H   0  0  0  0  0  0  0  0  0  0  0  0
   30.3243   39.9171   63.5598 H   0  0  0  0  0  0  0  0  0  0  0  0
   31.0490   39.2491   65.8156 H   0  0  0  0  0  0  0  0  0  0  0  0
   31.9550   36.9923   66.2006 H   0  0  0  0  0  0  0  0  0  0  0  0
  1  2  1  0  0  0  0
  1 25  1  0  0  0  0
  1 26  1  0  0  0  0
  2 24  2  0  0  0  0
  2  3  1  0  0  0  0
  3  4  2  0  0  0  0
  4  5  1  0  0  0  0
  4 11  1  0  0  0  0
  5 10  2  0  0  0  0
  5  6  1  0  0  0  0
  6  7  2  0  0  0  0
  6 27  1  0  0  0  0
  7  8  1  0  0  0  0
  7 28  1  0  0  0  0
  8  9  2  0  0  0  0
  8 29  1  0  0  0  0
  9 10  1  0  0  0  0
  9 30  1  0  0  0  0
 11 23  2  0  0  0  0
 11 12  1  0  0  0  0
 12 13  2  0  0  0  0
 12 31  1  0  0  0  0
 13 14  1  0  0  0  0
 14 15  1  0  0  0  0
 14 23  1  0  0  0  0
 15 16  1  0  0  0  0
 15 32  1  0  0  0  0
 15 33  1  0  0  0  0
 16 21  2  0  0  0  0
 16 17  1  0  0  0  0
 17 18  2  0  0  0  0
 17 34  1  0  0  0  0
 18 19  1  0  0  0  0
 18 35  1  0  0  0  0
 19 20  2  0  0  0  0
 19 36  1  0  0  0  0
 20 21  1  0  0  0  0
 20 37  1  0  0  0  0
 21 22  1  0  0  0  0
 23 24  1  0  0  0  0
M  END
$$$$
