CHEMBL1221457      none
 OpenBabel11202420153D

 37 40  0  0  0  0  0  0  0  0999 V2000
   35.4181   39.6082   52.5798 C   0  0  0  0  0  0  0  0  0  0  0  0
   35.1918   38.4883   53.5624 C   0  0  0  0  0  0  0  0  0  0  0  0
   35.8698   37.3801   53.6321 N   0  0  0  0  0  0  0  0  0  0  0  0
   35.4494   36.6778   54.5269 O   0  0  0  0  0  0  0  0  0  0  0  0
   34.4223   37.2927   55.1395 C   0  0  0  0  0  0  0  0  0  0  0  0
   33.6414   36.7807   56.2666 C   0  0  0  0  0  0  0  0  0  0  0  0
   33.3874   35.4551   56.5436 C   0  0  0  0  0  0  0  0  0  0  0  0
   33.8901   34.3408   55.7077 C   0  0  0  0  0  0  0  0  0  0  0  0
   34.7326   33.3757   56.2600 C   0  0  0  0  0  0  0  0  0  0  0  0
   35.1929   32.3368   55.4774 C   0  0  0  0  0  0  0  0  0  0  0  0
   34.8299   32.2571   54.1449 C   0  0  0  0  0  0  0  0  0  0  0  0
   33.9994   33.2145   53.5897 C   0  0  0  0  0  0  0  0  0  0  0  0
   33.5275   34.2549   54.3634 C   0  0  0  0  0  0  0  0  0  0  0  0
   32.6586   35.2732   57.6286 N   0  0  0  0  0  0  0  0  0  0  0  0
   32.2761   36.3325   58.2715 C   0  0  0  0  0  0  0  0  0  0  0  0
   31.5050   36.3176   59.4224 N   0  0  0  0  0  0  0  0  0  0  0  0
   31.1594   37.4768   60.0169 C   0  0  0  0  0  0  0  0  0  0  0  0
   31.5235   38.5327   59.5445 O   0  0  0  0  0  0  0  0  0  0  0  0
   30.3258   37.4605   61.2723 C   0  0  0  0  0  0  0  0  0  0  0  0
   30.5411   36.3020   62.2483 C   0  0  0  0  0  0  0  0  0  0  0  0
   29.2671   36.3636   61.4031 C   0  0  0  0  0  0  0  0  0  0  0  0
   32.8575   37.7484   57.5126 S   0  0  0  0  0  0  0  0  0  0  0  0
   34.2520   38.4527   54.5177 N   0  0  0  0  0  0  0  0  0  0  0  0
   34.8169   39.4353   51.6870 H   0  0  0  0  0  0  0  0  0  0  0  0
   35.1283   40.5552   53.0351 H   0  0  0  0  0  0  0  0  0  0  0  0
   36.4726   39.6441   52.3063 H   0  0  0  0  0  0  0  0  0  0  0  0
   35.0199   33.4390   57.2990 H   0  0  0  0  0  0  0  0  0  0  0  0
   35.8410   31.5861   55.9050 H   0  0  0  0  0  0  0  0  0  0  0  0
   35.1964   31.4445   53.5352 H   0  0  0  0  0  0  0  0  0  0  0  0
   33.7196   33.1470   52.5487 H   0  0  0  0  0  0  0  0  0  0  0  0
   32.8787   35.0011   53.9292 H   0  0  0  0  0  0  0  0  0  0  0  0
   31.2138   35.4731   59.8003 H   0  0  0  0  0  0  0  0  0  0  0  0
   30.0926   38.4380   61.6945 H   0  0  0  0  0  0  0  0  0  0  0  0
   31.2857   35.5517   61.9823 H   0  0  0  0  0  0  0  0  0  0  0  0
   30.4497   36.5171   63.3129 H   0  0  0  0  0  0  0  0  0  0  0  0
   28.3377   36.6194   61.9118 H   0  0  0  0  0  0  0  0  0  0  0  0
   29.1734   35.6540   60.5811 H   0  0  0  0  0  0  0  0  0  0  0  0
  1  2  1  0  0  0  0
  1 24  1  0  0  0  0
  1 25  1  0  0  0  0
  1 26  1  0  0  0  0
  2 23  1  0  0  0  0
  2  3  2  0  0  0  0
  3  4  1  0  0  0  0
  4  5  1  0  0  0  0
  5  6  1  0  0  0  0
  5 23  2  0  0  0  0
  6 22  1  0  0  0  0
  6  7  2  0  0  0  0
  7  8  1  0  0  0  0
  7 14  1  0  0  0  0
  8 13  2  0  0  0  0
  8  9  1  0  0  0  0
  9 10  2  0  0  0  0
  9 27  1  0  0  0  0
 10 11  1  0  0  0  0
 10 28  1  0  0  0  0
 11 12  2  0  0  0  0
 11 29  1  0  0  0  0
 12 13  1  0  0  0  0
 12 30  1  0  0  0  0
 13 31  1  0  0  0  0
 14 15  2  0  0  0  0
 15 16  1  0  0  0  0
 15 22  1  0  0  0  0
 16 17  1  0  0  0  0
 16 32  1  0  0  0  0
 17 18  2  0  0  0  0
 17 19  1  0  0  0  0
 19 21  1  0  0  0  0
 19 20  1  0  0  0  0
 19 33  1  0  0  0  0
 20 21  1  0  0  0  0
 20 34  1  0  0  0  0
 20 35  1  0  0  0  0
 21 36  1  0  0  0  0
 21 37  1  0  0  0  0
M  END
$$$$
