CHEMBL92906      none
 OpenBabel11202420153D

 49 50  0  0  0  0  0  0  0  0999 V2000
   32.3611   36.9148   61.6134 C   0  0  0  0  0  0  0  0  0  0  0  0
   32.0857   37.5325   62.9858 C   0  0  0  0  0  0  0  0  0  0  0  0
   30.7705   36.9804   63.5390 C   0  0  0  0  0  0  0  0  0  0  0  0
   30.5069   37.5719   64.8531 N   0  0  0  0  0  0  0  0  0  0  0  0
   29.8021   38.7210   64.9369 C   0  0  0  0  0  0  0  0  0  0  0  0
   29.3842   39.2695   63.9336 O   0  0  0  0  0  0  0  0  0  0  0  0
   29.5524   39.2922   66.2614 C   0  0  0  0  0  0  0  0  0  0  0  0
   30.0493   38.6216   67.3726 C   0  0  0  0  0  0  0  0  0  0  0  0
   29.6859   39.3552   68.4576 N   0  0  0  0  0  0  0  0  0  0  0  0
   28.9824   40.4348   68.0085 C   0  0  0  0  0  0  0  0  0  0  0  0
   28.3857   41.5080   68.8820 C   0  0  0  0  0  0  0  0  0  0  0  0
   29.4074   42.6290   69.0824 C   0  0  0  0  0  0  0  0  0  0  0  0
   28.8016   43.7187   69.9694 C   0  0  0  0  0  0  0  0  0  0  0  0
   29.7799   44.7921   70.1611 N   0  0  0  0  0  0  0  0  0  0  0  0
   29.3616   46.0594   70.3501 C   0  0  0  0  0  0  0  0  0  0  0  0
   28.1753   46.3110   70.3614 O   0  0  0  0  0  0  0  0  0  0  0  0
   30.3680   47.1635   70.5473 C   0  0  0  0  0  0  0  0  0  0  0  0
   31.4573   46.7808   72.1386 Br  0  0  0  0  0  0  0  0  0  0  0  0
   28.9052   40.3946   66.7098 N   0  0  0  0  0  0  0  0  0  0  0  0
   30.7614   37.4584   67.1912 N   0  0  0  0  0  0  0  0  0  0  0  0
   31.2935   36.7464   68.3557 C   0  0  0  0  0  0  0  0  0  0  0  0
   32.7001   37.2607   68.6688 C   0  0  0  0  0  0  0  0  0  0  0  0
   33.2559   36.5172   69.8850 C   0  0  0  0  0  0  0  0  0  0  0  0
   30.9699   36.9641   65.9581 C   0  0  0  0  0  0  0  0  0  0  0  0
   31.6002   35.9310   65.8389 O   0  0  0  0  0  0  0  0  0  0  0  0
   33.2982   37.3081   61.2193 H   0  0  0  0  0  0  0  0  0  0  0  0
   32.4340   35.8316   61.7105 H   0  0  0  0  0  0  0  0  0  0  0  0
   31.5472   37.1646   60.9327 H   0  0  0  0  0  0  0  0  0  0  0  0
   32.0129   38.6158   62.8887 H   0  0  0  0  0  0  0  0  0  0  0  0
   32.8996   37.2828   63.6665 H   0  0  0  0  0  0  0  0  0  0  0  0
   30.8433   35.8973   63.6362 H   0  0  0  0  0  0  0  0  0  0  0  0
   29.9567   37.2303   62.8583 H   0  0  0  0  0  0  0  0  0  0  0  0
   29.8874   39.1473   69.3834 H   0  0  0  0  0  0  0  0  0  0  0  0
   27.4930   41.9112   68.4036 H   0  0  0  0  0  0  0  0  0  0  0  0
   28.1187   41.0825   69.8493 H   0  0  0  0  0  0  0  0  0  0  0  0
   30.3000   42.2258   69.5608 H   0  0  0  0  0  0  0  0  0  0  0  0
   29.6743   43.0546   68.1151 H   0  0  0  0  0  0  0  0  0  0  0  0
   27.9089   44.1218   69.4911 H   0  0  0  0  0  0  0  0  0  0  0  0
   28.5348   43.2931   70.9366 H   0  0  0  0  0  0  0  0  0  0  0  0
   30.7288   44.5909   70.1521 H   0  0  0  0  0  0  0  0  0  0  0  0
   31.0138   47.2273   69.6716 H   0  0  0  0  0  0  0  0  0  0  0  0
   29.8461   48.1108   70.6836 H   0  0  0  0  0  0  0  0  0  0  0  0
   31.3365   35.6788   68.1404 H   0  0  0  0  0  0  0  0  0  0  0  0
   30.6444   36.9181   69.2143 H   0  0  0  0  0  0  0  0  0  0  0  0
   33.3493   37.0889   67.8102 H   0  0  0  0  0  0  0  0  0  0  0  0
   32.6571   38.3283   68.8840 H   0  0  0  0  0  0  0  0  0  0  0  0
   33.2988   35.4495   69.6698 H   0  0  0  0  0  0  0  0  0  0  0  0
   34.2579   36.8834   70.1082 H   0  0  0  0  0  0  0  0  0  0  0  0
   32.6068   36.6888   70.7437 H   0  0  0  0  0  0  0  0  0  0  0  0
  1  2  1  0  0  0  0
  1 26  1  0  0  0  0
  1 27  1  0  0  0  0
  1 28  1  0  0  0  0
  2  3  1  0  0  0  0
  2 29  1  0  0  0  0
  2 30  1  0  0  0  0
  3  4  1  0  0  0  0
  3 31  1  0  0  0  0
  3 32  1  0  0  0  0
  4 24  1  0  0  0  0
  4  5  1  0  0  0  0
  5  6  2  0  0  0  0
  5  7  1  0  0  0  0
  7 19  1  0  0  0  0
  7  8  2  0  0  0  0
  8  9  1  0  0  0  0
  8 20  1  0  0  0  0
  9 10  1  0  0  0  0
  9 33  1  0  0  0  0
 10 11  1  0  0  0  0
 10 19  2  0  0  0  0
 11 12  1  0  0  0  0
 11 34  1  0  0  0  0
 11 35  1  0  0  0  0
 12 13  1  0  0  0  0
 12 36  1  0  0  0  0
 12 37  1  0  0  0  0
 13 14  1  0  0  0  0
 13 38  1  0  0  0  0
 13 39  1  0  0  0  0
 14 15  1  0  0  0  0
 14 40  1  0  0  0  0
 15 16  2  0  0  0  0
 15 17  1  0  0  0  0
 17 18  1  0  0  0  0
 17 41  1  0  0  0  0
 17 42  1  0  0  0  0
 20 21  1  0  0  0  0
 20 24  1  0  0  0  0
 21 22  1  0  0  0  0
 21 43  1  0  0  0  0
 21 44  1  0  0  0  0
 22 23  1  0  0  0  0
 22 45  1  0  0  0  0
 22 46  1  0  0  0  0
 23 47  1  0  0  0  0
 23 48  1  0  0  0  0
 23 49  1  0  0  0  0
 24 25  2  0  0  0  0
M  END
$$$$
