CHEMBL1093480      none
 OpenBabel11202420153D

 39 43  0  0  0  0  0  0  0  0999 V2000
   31.6887   33.8242   59.7798 S   0  0  0  0  0  0  0  0  0  0  0  0
   32.2685   35.2103   58.9591 C   0  0  0  0  0  0  0  0  0  0  0  0
   32.8806   35.2908   57.2977 S   0  0  0  0  0  0  0  0  0  0  0  0
   33.2220   37.0231   57.3598 C   0  0  0  0  0  0  0  0  0  0  0  0
   32.8524   37.4464   58.6265 C   0  0  0  0  0  0  0  0  0  0  0  0
   33.0224   38.7594   58.9199 N   0  0  0  0  0  0  0  0  0  0  0  0
   33.5099   39.6097   58.0674 C   0  0  0  0  0  0  0  0  0  0  0  0
   33.8862   39.2449   56.8175 N   0  0  0  0  0  0  0  0  0  0  0  0
   34.4269   39.9259   55.7212 N   0  0  0  0  0  0  0  0  0  0  0  0
   34.5899   39.0379   54.7558 C   0  0  0  0  0  0  0  0  0  0  0  0
   35.1366   39.3256   53.4131 C   0  0  0  0  0  0  0  0  0  0  0  0
   35.3148   38.4213   52.4138 C   0  0  0  0  0  0  0  0  0  0  0  0
   35.8542   39.1265   51.3197 C   0  0  0  0  0  0  0  0  0  0  0  0
   35.9845   40.4116   51.7040 C   0  0  0  0  0  0  0  0  0  0  0  0
   35.5501   40.5281   52.9689 O   0  0  0  0  0  0  0  0  0  0  0  0
   34.1825   37.8394   55.1836 N   0  0  0  0  0  0  0  0  0  0  0  0
   33.7505   37.9348   56.4310 C   0  0  0  0  0  0  0  0  0  0  0  0
   32.3505   36.4563   59.4388 N   0  0  0  0  0  0  0  0  0  0  0  0
   31.9194   36.7596   60.8056 C   0  0  0  0  0  0  0  0  0  0  0  0
   30.4369   37.1379   60.8007 C   0  0  0  0  0  0  0  0  0  0  0  0
   29.9935   37.4500   62.2068 C   0  0  0  0  0  0  0  0  0  0  0  0
   29.4970   36.4439   63.0144 C   0  0  0  0  0  0  0  0  0  0  0  0
   29.0853   36.7313   64.3024 C   0  0  0  0  0  0  0  0  0  0  0  0
   29.1799   38.0226   64.7862 C   0  0  0  0  0  0  0  0  0  0  0  0
   29.6769   39.0286   63.9789 C   0  0  0  0  0  0  0  0  0  0  0  0
   30.0840   38.7422   62.6893 C   0  0  0  0  0  0  0  0  0  0  0  0
   33.6195   40.6422   58.3648 H   0  0  0  0  0  0  0  0  0  0  0  0
   35.0857   37.3666   52.4509 H   0  0  0  0  0  0  0  0  0  0  0  0
   36.1169   38.7144   50.3566 H   0  0  0  0  0  0  0  0  0  0  0  0
   36.3738   41.2143   51.0954 H   0  0  0  0  0  0  0  0  0  0  0  0
   32.5055   37.5919   61.1952 H   0  0  0  0  0  0  0  0  0  0  0  0
   32.0687   35.8833   61.4365 H   0  0  0  0  0  0  0  0  0  0  0  0
   29.8508   36.3057   60.4112 H   0  0  0  0  0  0  0  0  0  0  0  0
   30.2878   38.0142   60.1699 H   0  0  0  0  0  0  0  0  0  0  0  0
   29.4264   35.4342   62.6374 H   0  0  0  0  0  0  0  0  0  0  0  0
   28.6933   35.9460   64.9318 H   0  0  0  0  0  0  0  0  0  0  0  0
   28.8622   38.2462   65.7940 H   0  0  0  0  0  0  0  0  0  0  0  0
   29.7475   40.0383   64.3559 H   0  0  0  0  0  0  0  0  0  0  0  0
   30.4722   39.5283   62.0586 H   0  0  0  0  0  0  0  0  0  0  0  0
  1  2  2  0  0  0  0
  2 18  1  0  0  0  0
  2  3  1  0  0  0  0
  3  4  1  0  0  0  0
  4 17  1  0  0  0  0
  4  5  2  0  0  0  0
  5  6  1  0  0  0  0
  5 18  1  0  0  0  0
  6  7  2  0  0  0  0
  7  8  1  0  0  0  0
  7 27  1  0  0  0  0
  8 17  1  0  0  0  0
  8  9  1  0  0  0  0
  9 10  2  0  0  0  0
 10 11  1  0  0  0  0
 10 16  1  0  0  0  0
 11 15  1  0  0  0  0
 11 12  2  0  0  0  0
 12 13  1  0  0  0  0
 12 28  1  0  0  0  0
 13 14  2  0  0  0  0
 13 29  1  0  0  0  0
 14 15  1  0  0  0  0
 14 30  1  0  0  0  0
 16 17  2  0  0  0  0
 18 19  1  0  0  0  0
 19 20  1  0  0  0  0
 19 31  1  0  0  0  0
 19 32  1  0  0  0  0
 20 21  1  0  0  0  0
 20 33  1  0  0  0  0
 20 34  1  0  0  0  0
 21 26  2  0  0  0  0
 21 22  1  0  0  0  0
 22 23  2  0  0  0  0
 22 35  1  0  0  0  0
 23 24  1  0  0  0  0
 23 36  1  0  0  0  0
 24 25  2  0  0  0  0
 24 37  1  0  0  0  0
 25 26  1  0  0  0  0
 25 38  1  0  0  0  0
 26 39  1  0  0  0  0
M  END
$$$$
