CHEMBL405234      none
 OpenBabel11202420153D

 31 33  0  0  0  0  0  0  0  0999 V2000
   31.7294   32.6592   57.1464 O   0  0  0  0  0  0  0  0  0  0  0  0
   32.5960   33.4422   56.8043 C   0  0  0  0  0  0  0  0  0  0  0  0
   33.5385   33.0743   55.7487 C   0  0  0  0  0  0  0  0  0  0  0  0
   33.2021   32.7441   54.4614 C   0  0  0  0  0  0  0  0  0  0  0  0
   34.2879   32.4433   53.6777 C   0  0  0  0  0  0  0  0  0  0  0  0
   35.4742   32.5136   54.2975 C   0  0  0  0  0  0  0  0  0  0  0  0
   35.2849   32.9768   55.9285 S   0  0  0  0  0  0  0  0  0  0  0  0
   32.6959   34.7685   57.4576 C   0  0  0  0  0  0  0  0  0  0  0  0
   33.1881   35.8781   56.7498 C   0  0  0  0  0  0  0  0  0  0  0  0
   33.7653   36.0444   55.0993 S   0  0  0  0  0  0  0  0  0  0  0  0
   34.1048   37.7505   55.3200 C   0  0  0  0  0  0  0  0  0  0  0  0
   33.8024   38.1488   56.5441 C   0  0  0  0  0  0  0  0  0  0  0  0
   33.2720   37.1149   57.4080 C   0  0  0  0  0  0  0  0  0  0  0  0
   32.8699   37.1778   58.6914 N   0  0  0  0  0  0  0  0  0  0  0  0
   32.4106   36.1104   59.3135 C   0  0  0  0  0  0  0  0  0  0  0  0
   32.0092   36.2289   60.6355 N   0  0  0  0  0  0  0  0  0  0  0  0
   32.1000   37.5234   61.3153 C   0  0  0  0  0  0  0  0  0  0  0  0
   31.5979   37.3805   62.7535 C   0  0  0  0  0  0  0  0  0  0  0  0
   32.4008   36.4219   63.4453 O   0  0  0  0  0  0  0  0  0  0  0  0
   32.3186   34.9288   58.7226 N   0  0  0  0  0  0  0  0  0  0  0  0
   32.1846   32.7249   54.0997 H   0  0  0  0  0  0  0  0  0  0  0  0
   34.1930   32.1658   52.6383 H   0  0  0  0  0  0  0  0  0  0  0  0
   36.4236   32.3050   53.8268 H   0  0  0  0  0  0  0  0  0  0  0  0
   34.5100   38.3944   54.5533 H   0  0  0  0  0  0  0  0  0  0  0  0
   33.9408   39.1676   56.8745 H   0  0  0  0  0  0  0  0  0  0  0  0
   31.6685   35.4547   61.1102 H   0  0  0  0  0  0  0  0  0  0  0  0
   33.1377   37.8572   61.3242 H   0  0  0  0  0  0  0  0  0  0  0  0
   31.4877   38.2546   60.7876 H   0  0  0  0  0  0  0  0  0  0  0  0
   31.6655   38.3438   63.2593 H   0  0  0  0  0  0  0  0  0  0  0  0
   30.5603   37.0469   62.7445 H   0  0  0  0  0  0  0  0  0  0  0  0
   32.1387   36.2801   64.3653 H   0  0  0  0  0  0  0  0  0  0  0  0
  1  2  2  0  0  0  0
  2  3  1  0  0  0  0
  2  8  1  0  0  0  0
  3  7  1  0  0  0  0
  3  4  2  0  0  0  0
  4  5  1  0  0  0  0
  4 21  1  0  0  0  0
  5  6  2  0  0  0  0
  5 22  1  0  0  0  0
  6  7  1  0  0  0  0
  6 23  1  0  0  0  0
  8 20  2  0  0  0  0
  8  9  1  0  0  0  0
  9 13  2  0  0  0  0
  9 10  1  0  0  0  0
 10 11  1  0  0  0  0
 11 12  2  0  0  0  0
 11 24  1  0  0  0  0
 12 13  1  0  0  0  0
 12 25  1  0  0  0  0
 13 14  1  0  0  0  0
 14 15  2  0  0  0  0
 15 16  1  0  0  0  0
 15 20  1  0  0  0  0
 16 17  1  0  0  0  0
 16 26  1  0  0  0  0
 17 18  1  0  0  0  0
 17 27  1  0  0  0  0
 17 28  1  0  0  0  0
 18 19  1  0  0  0  0
 18 29  1  0  0  0  0
 18 30  1  0  0  0  0
 19 31  1  0  0  0  0
M  END
$$$$
