CHEMBL177330      none
 OpenBabel11202420153D

 31 34  0  0  0  0  0  0  0  0999 V2000
   33.1730   40.8949   59.1995 N   0  0  0  0  0  0  0  0  0  0  0  0
   33.1078   39.5900   58.7698 C   0  0  0  0  0  0  0  0  0  0  0  0
   32.6575   38.6642   59.5850 N   0  0  0  0  0  0  0  0  0  0  0  0
   32.5796   37.3764   59.2148 C   0  0  0  0  0  0  0  0  0  0  0  0
   32.0717   36.3619   60.1686 C   0  0  0  0  0  0  0  0  0  0  0  0
   31.6774   36.7516   61.4470 C   0  0  0  0  0  0  0  0  0  0  0  0
   31.2050   35.7925   62.3268 C   0  0  0  0  0  0  0  0  0  0  0  0
   31.1425   34.4744   61.8985 C   0  0  0  0  0  0  0  0  0  0  0  0
   31.5560   34.1570   60.6170 C   0  0  0  0  0  0  0  0  0  0  0  0
   31.9964   35.0894   59.7982 N   0  0  0  0  0  0  0  0  0  0  0  0
   32.9672   36.9952   57.9433 C   0  0  0  0  0  0  0  0  0  0  0  0
   33.4447   37.9842   57.0636 C   0  0  0  0  0  0  0  0  0  0  0  0
   33.8839   37.9619   55.8152 N   0  0  0  0  0  0  0  0  0  0  0  0
   34.2244   39.1980   55.4378 C   0  0  0  0  0  0  0  0  0  0  0  0
   34.7576   39.5696   54.1104 C   0  0  0  0  0  0  0  0  0  0  0  0
   34.9885   38.7179   53.0764 C   0  0  0  0  0  0  0  0  0  0  0  0
   35.4892   39.4960   52.0137 C   0  0  0  0  0  0  0  0  0  0  0  0
   35.5473   40.7695   52.4502 C   0  0  0  0  0  0  0  0  0  0  0  0
   35.1046   40.8104   53.7171 O   0  0  0  0  0  0  0  0  0  0  0  0
   34.0100   40.0357   56.4368 N   0  0  0  0  0  0  0  0  0  0  0  0
   33.5052   39.2817   57.5039 N   0  0  0  0  0  0  0  0  0  0  0  0
   33.4997   41.5864   58.6027 H   0  0  0  0  0  0  0  0  0  0  0  0
   32.8923   41.1239   60.0993 H   0  0  0  0  0  0  0  0  0  0  0  0
   31.7397   37.7870   61.7476 H   0  0  0  0  0  0  0  0  0  0  0  0
   30.8917   36.0644   63.3241 H   0  0  0  0  0  0  0  0  0  0  0  0
   30.7787   33.7027   62.5609 H   0  0  0  0  0  0  0  0  0  0  0  0
   31.5127   33.1311   60.2821 H   0  0  0  0  0  0  0  0  0  0  0  0
   32.9045   35.9628   57.6325 H   0  0  0  0  0  0  0  0  0  0  0  0
   34.8189   37.6513   53.0700 H   0  0  0  0  0  0  0  0  0  0  0  0
   35.7763   39.1385   51.0359 H   0  0  0  0  0  0  0  0  0  0  0  0
   35.8931   41.6166   51.8764 H   0  0  0  0  0  0  0  0  0  0  0  0
  1  2  1  0  0  0  0
  1 22  1  0  0  0  0
  1 23  1  0  0  0  0
  2 21  1  0  0  0  0
  2  3  2  0  0  0  0
  3  4  1  0  0  0  0
  4  5  1  0  0  0  0
  4 11  2  0  0  0  0
  5 10  2  0  0  0  0
  5  6  1  0  0  0  0
  6  7  2  0  0  0  0
  6 24  1  0  0  0  0
  7  8  1  0  0  0  0
  7 25  1  0  0  0  0
  8  9  2  0  0  0  0
  8 26  1  0  0  0  0
  9 10  1  0  0  0  0
  9 27  1  0  0  0  0
 11 12  1  0  0  0  0
 11 28  1  0  0  0  0
 12 21  1  0  0  0  0
 12 13  2  0  0  0  0
 13 14  1  0  0  0  0
 14 15  1  0  0  0  0
 14 20  2  0  0  0  0
 15 19  1  0  0  0  0
 15 16  2  0  0  0  0
 16 17  1  0  0  0  0
 16 29  1  0  0  0  0
 17 18  2  0  0  0  0
 17 30  1  0  0  0  0
 18 19  1  0  0  0  0
 18 31  1  0  0  0  0
 20 21  1  0  0  0  0
M  END
$$$$
