CHEMBL300624      none
 OpenBabel11202420153D

 40 42  0  0  0  0  0  0  0  0999 V2000
   32.8318   34.8875   56.6998 C   0  0  0  0  0  0  0  0  0  0  0  0
   32.9535   36.3254   56.9525 N   0  0  0  0  0  0  0  0  0  0  0  0
   33.2812   37.2889   56.0325 C   0  0  0  0  0  0  0  0  0  0  0  0
   33.5718   37.0392   54.6043 C   0  0  0  0  0  0  0  0  0  0  0  0
   34.8164   37.3794   54.0728 C   0  0  0  0  0  0  0  0  0  0  0  0
   35.0828   37.1440   52.7394 C   0  0  0  0  0  0  0  0  0  0  0  0
   34.1194   36.5718   51.9287 C   0  0  0  0  0  0  0  0  0  0  0  0
   32.8809   36.2312   52.4492 C   0  0  0  0  0  0  0  0  0  0  0  0
   31.9447   35.6721   51.6516 F   0  0  0  0  0  0  0  0  0  0  0  0
   32.6045   36.4572   53.7840 C   0  0  0  0  0  0  0  0  0  0  0  0
   33.2975   38.4645   56.6123 N   0  0  0  0  0  0  0  0  0  0  0  0
   32.9872   38.3294   57.9147 C   0  0  0  0  0  0  0  0  0  0  0  0
   32.8563   39.2260   58.9932 C   0  0  0  0  0  0  0  0  0  0  0  0
   33.0660   40.5820   58.8142 N   0  0  0  0  0  0  0  0  0  0  0  0
   32.5215   38.7435   60.1828 N   0  0  0  0  0  0  0  0  0  0  0  0
   32.3233   37.4410   60.3654 C   0  0  0  0  0  0  0  0  0  0  0  0
   31.9700   36.9714   61.6714 C   0  0  0  0  0  0  0  0  0  0  0  0
   31.6803   36.5865   62.7420 C   0  0  0  0  0  0  0  0  0  0  0  0
   31.3172   36.1039   64.0843 C   0  0  0  0  0  0  0  0  0  0  0  0
   31.2472   37.2882   65.0505 C   0  0  0  0  0  0  0  0  0  0  0  0
   29.9539   35.4119   64.0260 C   0  0  0  0  0  0  0  0  0  0  0  0
   32.3035   35.1754   64.5396 O   0  0  0  0  0  0  0  0  0  0  0  0
   32.4365   36.5630   59.3777 N   0  0  0  0  0  0  0  0  0  0  0  0
   32.7621   36.9605   58.1548 C   0  0  0  0  0  0  0  0  0  0  0  0
   31.8362   34.6696   56.3134 H   0  0  0  0  0  0  0  0  0  0  0  0
   33.5802   34.5825   55.9684 H   0  0  0  0  0  0  0  0  0  0  0  0
   32.9884   34.3406   57.6296 H   0  0  0  0  0  0  0  0  0  0  0  0
   35.5699   37.8266   54.7040 H   0  0  0  0  0  0  0  0  0  0  0  0
   36.0461   37.4069   52.3280 H   0  0  0  0  0  0  0  0  0  0  0  0
   34.3333   36.3892   50.8860 H   0  0  0  0  0  0  0  0  0  0  0  0
   31.6409   36.1875   54.1905 H   0  0  0  0  0  0  0  0  0  0  0  0
   33.3059   40.9243   57.9389 H   0  0  0  0  0  0  0  0  0  0  0  0
   32.9731   41.1903   59.5640 H   0  0  0  0  0  0  0  0  0  0  0  0
   30.4949   37.9964   64.7031 H   0  0  0  0  0  0  0  0  0  0  0  0
   30.9783   36.9308   66.0444 H   0  0  0  0  0  0  0  0  0  0  0  0
   32.2184   37.7811   65.0920 H   0  0  0  0  0  0  0  0  0  0  0  0
   30.0038   34.5682   63.3377 H   0  0  0  0  0  0  0  0  0  0  0  0
   29.6850   35.0546   65.0200 H   0  0  0  0  0  0  0  0  0  0  0  0
   29.2015   36.1201   63.6787 H   0  0  0  0  0  0  0  0  0  0  0  0
   32.1282   34.8156   65.4199 H   0  0  0  0  0  0  0  0  0  0  0  0
  1  2  1  0  0  0  0
  1 25  1  0  0  0  0
  1 26  1  0  0  0  0
  1 27  1  0  0  0  0
  2 24  1  0  0  0  0
  2  3  1  0  0  0  0
  3  4  1  0  0  0  0
  3 11  2  0  0  0  0
  4 10  2  0  0  0  0
  4  5  1  0  0  0  0
  5  6  2  0  0  0  0
  5 28  1  0  0  0  0
  6  7  1  0  0  0  0
  6 29  1  0  0  0  0
  7  8  2  0  0  0  0
  7 30  1  0  0  0  0
  8  9  1  0  0  0  0
  8 10  1  0  0  0  0
 10 31  1  0  0  0  0
 11 12  1  0  0  0  0
 12 24  2  0  0  0  0
 12 13  1  0  0  0  0
 13 14  1  0  0  0  0
 13 15  2  0  0  0  0
 14 32  1  0  0  0  0
 14 33  1  0  0  0  0
 15 16  1  0  0  0  0
 16 17  1  0  0  0  0
 16 23  2  0  0  0  0
 17 18  3  0  0  0  0
 18 19  1  0  0  0  0
 19 20  1  0  0  0  0
 19 21  1  0  0  0  0
 19 22  1  0  0  0  0
 20 34  1  0  0  0  0
 20 35  1  0  0  0  0
 20 36  1  0  0  0  0
 21 37  1  0  0  0  0
 21 38  1  0  0  0  0
 21 39  1  0  0  0  0
 22 40  1  0  0  0  0
 23 24  1  0  0  0  0
M  END
$$$$
