CHEMBL183674      none
 OpenBabel11202420153D

 39 42  0  0  1  0  0  0  0  0999 V2000
   33.2324   41.0817   59.3155 N   0  0  0  0  0  0  0  0  0  0  0  0
   32.8758   39.7475   59.1986 C   0  0  0  0  0  0  0  0  0  0  0  0
   32.1943   39.1583   60.1591 N   0  0  0  0  0  0  0  0  0  0  0  0
   31.8385   37.8656   60.0646 C   0  0  0  0  0  0  0  0  0  0  0  0
   31.0981   37.2580   61.1291 C   0  0  0  0  0  0  0  0  0  0  0  0
   30.4910   36.7599   62.0018 C   0  0  0  0  0  0  0  0  0  0  0  0
   29.7300   36.1353   63.0961 C   0  0  1  0  0  0  0  0  0  0  0  0
   29.4682   34.7679   62.7743 O   0  0  0  0  0  0  0  0  0  0  0  0
   30.5436   36.2081   64.3897 C   0  0  0  0  0  0  0  0  0  0  0  0
   30.0980   35.2776   65.3786 O   0  0  0  0  0  0  0  0  0  0  0  0
   30.7218   37.6384   64.9257 C   0  0  0  0  0  0  0  0  0  0  0  0
   32.1672   37.2407   65.2765 C   0  0  0  0  0  0  0  0  0  0  0  0
   32.0645   36.1850   64.1631 C   0  0  0  0  0  0  0  0  0  0  0  0
   32.1729   37.1239   58.9697 C   0  0  0  0  0  0  0  0  0  0  0  0
   32.8773   37.6956   57.9543 N   0  0  0  0  0  0  0  0  0  0  0  0
   33.3662   37.2307   56.7281 N   0  0  0  0  0  0  0  0  0  0  0  0
   33.9844   38.2488   56.1494 C   0  0  0  0  0  0  0  0  0  0  0  0
   34.6525   38.2071   54.8318 C   0  0  0  0  0  0  0  0  0  0  0  0
   34.7413   37.1229   54.0164 C   0  0  0  0  0  0  0  0  0  0  0  0
   35.4544   37.5329   52.8723 C   0  0  0  0  0  0  0  0  0  0  0  0
   35.7702   38.8310   53.0481 C   0  0  0  0  0  0  0  0  0  0  0  0
   35.2842   39.2350   54.2328 O   0  0  0  0  0  0  0  0  0  0  0  0
   33.9084   39.3182   56.9430 N   0  0  0  0  0  0  0  0  0  0  0  0
   33.2424   39.0105   58.0441 C   0  0  0  0  0  0  0  0  0  0  0  0
   32.9801   41.5838   60.1062 H   0  0  0  0  0  0  0  0  0  0  0  0
   33.7344   41.5134   58.6066 H   0  0  0  0  0  0  0  0  0  0  0  0
   28.7862   36.6640   63.2302 H   0  0  0  0  0  0  0  0  0  0  0  0
   30.2646   34.2358   62.6407 H   0  0  0  0  0  0  0  0  0  0  0  0
   30.4985   35.4070   66.2492 H   0  0  0  0  0  0  0  0  0  0  0  0
   30.6552   38.4053   64.1540 H   0  0  0  0  0  0  0  0  0  0  0  0
   30.1049   37.8583   65.7969 H   0  0  0  0  0  0  0  0  0  0  0  0
   32.2714   36.8144   66.2742 H   0  0  0  0  0  0  0  0  0  0  0  0
   32.8994   38.0218   65.0713 H   0  0  0  0  0  0  0  0  0  0  0  0
   32.5297   35.2332   64.4196 H   0  0  0  0  0  0  0  0  0  0  0  0
   32.3654   36.5524   63.1820 H   0  0  0  0  0  0  0  0  0  0  0  0
   31.8794   36.0864   58.9083 H   0  0  0  0  0  0  0  0  0  0  0  0
   34.3410   36.1383   54.2077 H   0  0  0  0  0  0  0  0  0  0  0  0
   35.7047   36.9211   52.0182 H   0  0  0  0  0  0  0  0  0  0  0  0
   36.3229   39.4445   52.3521 H   0  0  0  0  0  0  0  0  0  0  0  0
  1  2  1  0  0  0  0
  1 25  1  0  0  0  0
  1 26  1  0  0  0  0
  2 24  1  0  0  0  0
  2  3  2  0  0  0  0
  3  4  1  0  0  0  0
  4  5  1  0  0  0  0
  4 14  2  0  0  0  0
  5  6  3  0  0  0  0
  6  7  1  0  0  0  0
  7  8  1  0  0  0  0
  7  9  1  0  0  0  0
  7 27  1  1  0  0  0
  8 28  1  0  0  0  0
  9 13  1  0  0  0  0
  9 10  1  0  0  0  0
  9 11  1  0  0  0  0
 10 29  1  0  0  0  0
 11 12  1  0  0  0  0
 11 30  1  0  0  0  0
 11 31  1  0  0  0  0
 12 13  1  0  0  0  0
 12 32  1  0  0  0  0
 12 33  1  0  0  0  0
 13 34  1  0  0  0  0
 13 35  1  0  0  0  0
 14 15  1  0  0  0  0
 14 36  1  0  0  0  0
 15 24  1  0  0  0  0
 15 16  1  0  0  0  0
 16 17  2  0  0  0  0
 17 18  1  0  0  0  0
 17 23  1  0  0  0  0
 18 22  1  0  0  0  0
 18 19  2  0  0  0  0
 19 20  1  0  0  0  0
 19 37  1  0  0  0  0
 20 21  2  0  0  0  0
 20 38  1  0  0  0  0
 21 22  1  0  0  0  0
 21 39  1  0  0  0  0
 23 24  2  0  0  0  0
M  END
$$$$
