CHEMBL426530      none
 OpenBabel11202420153D

 38 40  0  0  0  0  0  0  0  0999 V2000
   30.0311   34.7372   67.7129 C   0  0  0  0  0  0  0  0  0  0  0  0
   29.8692   35.9000   66.8982 O   0  0  0  0  0  0  0  0  0  0  0  0
   30.2105   35.7879   65.5901 C   0  0  0  0  0  0  0  0  0  0  0  0
   30.0739   36.8862   64.7495 C   0  0  0  0  0  0  0  0  0  0  0  0
   30.4231   36.7645   63.4180 C   0  0  0  0  0  0  0  0  0  0  0  0
   30.9039   35.5309   62.9668 C   0  0  0  0  0  0  0  0  0  0  0  0
   31.2919   35.3485   61.5462 C   0  0  0  0  0  0  0  0  0  0  0  0
   31.1722   34.0966   60.9449 C   0  0  0  0  0  0  0  0  0  0  0  0
   31.5329   33.9251   59.6226 C   0  0  0  0  0  0  0  0  0  0  0  0
   32.0137   34.9912   58.8888 C   0  0  0  0  0  0  0  0  0  0  0  0
   32.1378   36.2485   59.4798 C   0  0  0  0  0  0  0  0  0  0  0  0
   32.6549   37.3926   58.6908 C   0  0  0  0  0  0  0  0  0  0  0  0
   32.7777   38.5896   59.2571 N   0  0  0  0  0  0  0  0  0  0  0  0
   33.2370   39.6167   58.5481 C   0  0  0  0  0  0  0  0  0  0  0  0
   33.3600   40.8600   59.1348 N   0  0  0  0  0  0  0  0  0  0  0  0
   33.5828   39.4450   57.2767 N   0  0  0  0  0  0  0  0  0  0  0  0
   33.4649   38.2470   56.7113 C   0  0  0  0  0  0  0  0  0  0  0  0
   33.9241   38.0195   55.0254 S   0  0  0  0  0  0  0  0  0  0  0  0
   33.5555   36.2578   54.8342 C   0  0  0  0  0  0  0  0  0  0  0  0
   33.0009   37.2207   57.4184 N   0  0  0  0  0  0  0  0  0  0  0  0
   31.7808   36.4257   60.8133 C   0  0  0  0  0  0  0  0  0  0  0  0
   31.0076   34.4752   63.8682 C   0  0  0  0  0  0  0  0  0  0  0  0
   30.6686   34.6343   65.1318 N   0  0  0  0  0  0  0  0  0  0  0  0
   29.4162   33.9284   67.3180 H   0  0  0  0  0  0  0  0  0  0  0  0
   31.0779   34.4333   67.7084 H   0  0  0  0  0  0  0  0  0  0  0  0
   29.7228   34.9629   68.7336 H   0  0  0  0  0  0  0  0  0  0  0  0
   29.6995   37.8239   65.1327 H   0  0  0  0  0  0  0  0  0  0  0  0
   30.3276   37.6017   62.7424 H   0  0  0  0  0  0  0  0  0  0  0  0
   30.7963   33.2591   61.5139 H   0  0  0  0  0  0  0  0  0  0  0  0
   31.4386   32.9533   59.1610 H   0  0  0  0  0  0  0  0  0  0  0  0
   32.2938   34.8515   57.8552 H   0  0  0  0  0  0  0  0  0  0  0  0
   33.6987   41.6084   58.6189 H   0  0  0  0  0  0  0  0  0  0  0  0
   33.1038   40.9864   60.0618 H   0  0  0  0  0  0  0  0  0  0  0  0
   32.4978   36.0843   55.0324 H   0  0  0  0  0  0  0  0  0  0  0  0
   33.7904   35.9458   53.8166 H   0  0  0  0  0  0  0  0  0  0  0  0
   34.1562   35.6824   55.5385 H   0  0  0  0  0  0  0  0  0  0  0  0
   31.8795   37.3963   61.2765 H   0  0  0  0  0  0  0  0  0  0  0  0
   31.3733   33.5170   63.5295 H   0  0  0  0  0  0  0  0  0  0  0  0
  1  2  1  0  0  0  0
  1 24  1  0  0  0  0
  1 25  1  0  0  0  0
  1 26  1  0  0  0  0
  2  3  1  0  0  0  0
  3 23  2  0  0  0  0
  3  4  1  0  0  0  0
  4  5  2  0  0  0  0
  4 27  1  0  0  0  0
  5  6  1  0  0  0  0
  5 28  1  0  0  0  0
  6  7  1  0  0  0  0
  6 22  2  0  0  0  0
  7 21  2  0  0  0  0
  7  8  1  0  0  0  0
  8  9  2  0  0  0  0
  8 29  1  0  0  0  0
  9 10  1  0  0  0  0
  9 30  1  0  0  0  0
 10 11  2  0  0  0  0
 10 31  1  0  0  0  0
 11 12  1  0  0  0  0
 11 21  1  0  0  0  0
 12 20  2  0  0  0  0
 12 13  1  0  0  0  0
 13 14  2  0  0  0  0
 14 15  1  0  0  0  0
 14 16  1  0  0  0  0
 15 32  1  0  0  0  0
 15 33  1  0  0  0  0
 16 17  2  0  0  0  0
 17 18  1  0  0  0  0
 17 20  1  0  0  0  0
 18 19  1  0  0  0  0
 19 34  1  0  0  0  0
 19 35  1  0  0  0  0
 19 36  1  0  0  0  0
 21 37  1  0  0  0  0
 22 23  1  0  0  0  0
 22 38  1  0  0  0  0
M  END
$$$$
