CHEMBL196258      none
 OpenBabel11202420153D

 39 41  0  0  0  0  0  0  0  0999 V2000
   32.0354   36.0826   52.8389 C   0  0  0  0  0  0  0  0  0  0  0  0
   33.4856   36.5352   52.6574 C   0  0  0  0  0  0  0  0  0  0  0  0
   34.3816   35.7833   53.6436 C   0  0  0  0  0  0  0  0  0  0  0  0
   33.9291   36.0827   55.0742 C   0  0  0  0  0  0  0  0  0  0  0  0
   34.0309   37.5865   55.3371 C   0  0  0  0  0  0  0  0  0  0  0  0
   33.5852   37.8814   56.7461 C   0  0  0  0  0  0  0  0  0  0  0  0
   33.5949   39.1329   57.1669 N   0  0  0  0  0  0  0  0  0  0  0  0
   33.2114   39.4476   58.3999 C   0  0  0  0  0  0  0  0  0  0  0  0
   33.2246   40.7629   58.8318 N   0  0  0  0  0  0  0  0  0  0  0  0
   32.7918   38.4144   59.2549 C   0  0  0  0  0  0  0  0  0  0  0  0
   32.3475   38.3596   60.5332 N   0  0  0  0  0  0  0  0  0  0  0  0
   32.0865   37.1183   60.8500 C   0  0  0  0  0  0  0  0  0  0  0  0
   31.6101   36.6908   62.0868 N   0  0  0  0  0  0  0  0  0  0  0  0
   31.3138   35.3709   62.4602 N   0  0  0  0  0  0  0  0  0  0  0  0
   30.8963   35.3965   63.7023 C   0  0  0  0  0  0  0  0  0  0  0  0
   30.9016   36.7104   64.1586 C   0  0  0  0  0  0  0  0  0  0  0  0
   31.3273   37.4966   63.2004 N   0  0  0  0  0  0  0  0  0  0  0  0
   32.3511   36.3030   59.7848 N   0  0  0  0  0  0  0  0  0  0  0  0
   32.1866   34.8478   59.7447 C   0  0  0  0  0  0  0  0  0  0  0  0
   32.7999   37.0990   58.7595 C   0  0  0  0  0  0  0  0  0  0  0  0
   33.1957   36.8822   57.5099 N   0  0  0  0  0  0  0  0  0  0  0  0
   31.3971   36.6182   52.1362 H   0  0  0  0  0  0  0  0  0  0  0  0
   31.9631   35.0113   52.6514 H   0  0  0  0  0  0  0  0  0  0  0  0
   31.7130   36.2958   53.8579 H   0  0  0  0  0  0  0  0  0  0  0  0
   33.5580   37.6065   52.8446 H   0  0  0  0  0  0  0  0  0  0  0  0
   33.8080   36.3219   51.6382 H   0  0  0  0  0  0  0  0  0  0  0  0
   35.4148   36.1058   53.5143 H   0  0  0  0  0  0  0  0  0  0  0  0
   34.3092   34.7120   53.4564 H   0  0  0  0  0  0  0  0  0  0  0  0
   32.8960   35.7603   55.2034 H   0  0  0  0  0  0  0  0  0  0  0  0
   34.5676   35.5470   55.7768 H   0  0  0  0  0  0  0  0  0  0  0  0
   35.0640   37.9089   55.2078 H   0  0  0  0  0  0  0  0  0  0  0  0
   33.3924   38.1221   54.6345 H   0  0  0  0  0  0  0  0  0  0  0  0
   33.5161   41.4673   58.2321 H   0  0  0  0  0  0  0  0  0  0  0  0
   32.9424   40.9799   59.7341 H   0  0  0  0  0  0  0  0  0  0  0  0
   30.5929   34.5349   64.2786 H   0  0  0  0  0  0  0  0  0  0  0  0
   30.6030   37.0314   65.1456 H   0  0  0  0  0  0  0  0  0  0  0  0
   31.1801   34.6052   59.4039 H   0  0  0  0  0  0  0  0  0  0  0  0
   32.9160   34.4185   59.0579 H   0  0  0  0  0  0  0  0  0  0  0  0
   32.3413   34.4370   60.7424 H   0  0  0  0  0  0  0  0  0  0  0  0
  1  2  1  0  0  0  0
  1 22  1  0  0  0  0
  1 23  1  0  0  0  0
  1 24  1  0  0  0  0
  2  3  1  0  0  0  0
  2 25  1  0  0  0  0
  2 26  1  0  0  0  0
  3  4  1  0  0  0  0
  3 27  1  0  0  0  0
  3 28  1  0  0  0  0
  4  5  1  0  0  0  0
  4 29  1  0  0  0  0
  4 30  1  0  0  0  0
  5  6  1  0  0  0  0
  5 31  1  0  0  0  0
  5 32  1  0  0  0  0
  6 21  2  0  0  0  0
  6  7  1  0  0  0  0
  7  8  2  0  0  0  0
  8  9  1  0  0  0  0
  8 10  1  0  0  0  0
  9 33  1  0  0  0  0
  9 34  1  0  0  0  0
 10 20  2  0  0  0  0
 10 11  1  0  0  0  0
 11 12  2  0  0  0  0
 12 13  1  0  0  0  0
 12 18  1  0  0  0  0
 13 17  1  0  0  0  0
 13 14  1  0  0  0  0
 14 15  2  0  0  0  0
 15 16  1  0  0  0  0
 15 35  1  0  0  0  0
 16 17  2  0  0  0  0
 16 36  1  0  0  0  0
 18 19  1  0  0  0  0
 18 20  1  0  0  0  0
 19 37  1  0  0  0  0
 19 38  1  0  0  0  0
 19 39  1  0  0  0  0
 20 21  1  0  0  0  0
M  END
$$$$
