CHEMBL573589      none
 OpenBabel11202420153D

 44 48  0  0  0  0  0  0  0  0999 V2000
   33.3341   43.2348   69.1041 C   0  0  0  0  0  0  0  0  0  0  0  0
   32.4308   42.4164   68.2913 N   0  0  0  0  0  0  0  0  0  0  0  0
   31.0890   42.4308   68.3736 C   0  0  0  0  0  0  0  0  0  0  0  0
   30.6034   41.5344   67.4571 C   0  0  0  0  0  0  0  0  0  0  0  0
   31.7697   40.9452   66.7801 C   0  0  0  0  0  0  0  0  0  0  0  0
   32.8347   41.5022   67.3113 N   0  0  0  0  0  0  0  0  0  0  0  0
   31.5546   40.0103   65.8173 N   0  0  0  0  0  0  0  0  0  0  0  0
   30.3531   39.6359   65.4770 C   0  0  0  0  0  0  0  0  0  0  0  0
   30.2250   38.6838   64.4840 N   0  0  0  0  0  0  0  0  0  0  0  0
   31.3241   38.1698   63.8973 C   0  0  0  0  0  0  0  0  0  0  0  0
   32.4255   38.5432   64.2409 O   0  0  0  0  0  0  0  0  0  0  0  0
   31.1844   37.1312   62.8143 C   0  0  0  0  0  0  0  0  0  0  0  0
   31.0999   37.7777   61.5426 O   0  0  0  0  0  0  0  0  0  0  0  0
   31.5848   37.0968   60.4710 C   0  0  0  0  0  0  0  0  0  0  0  0
   32.1102   37.7875   59.3887 C   0  0  0  0  0  0  0  0  0  0  0  0
   32.6073   37.0930   58.3029 C   0  0  0  0  0  0  0  0  0  0  0  0
   32.5720   35.7109   58.2898 C   0  0  0  0  0  0  0  0  0  0  0  0
   32.0436   35.0203   59.3648 C   0  0  0  0  0  0  0  0  0  0  0  0
   31.5500   35.7100   60.4553 C   0  0  0  0  0  0  0  0  0  0  0  0
   29.2112   40.1274   66.0502 N   0  0  0  0  0  0  0  0  0  0  0  0
   27.8478   39.8687   65.8463 N   0  0  0  0  0  0  0  0  0  0  0  0
   27.1789   40.6357   66.6848 C   0  0  0  0  0  0  0  0  0  0  0  0
   25.7073   40.6869   66.8108 C   0  0  0  0  0  0  0  0  0  0  0  0
   24.9282   41.7852   66.6235 C   0  0  0  0  0  0  0  0  0  0  0  0
   23.5964   41.3800   66.8410 C   0  0  0  0  0  0  0  0  0  0  0  0
   23.6288   40.0702   67.1560 C   0  0  0  0  0  0  0  0  0  0  0  0
   24.9054   39.6548   67.1368 O   0  0  0  0  0  0  0  0  0  0  0  0
   28.0453   41.3620   67.4040 N   0  0  0  0  0  0  0  0  0  0  0  0
   29.2739   41.0724   67.0390 C   0  0  0  0  0  0  0  0  0  0  0  0
   33.5226   44.1810   68.5971 H   0  0  0  0  0  0  0  0  0  0  0  0
   32.8759   43.4274   70.0743 H   0  0  0  0  0  0  0  0  0  0  0  0
   34.2759   42.7047   69.2460 H   0  0  0  0  0  0  0  0  0  0  0  0
   30.4989   43.0400   69.0422 H   0  0  0  0  0  0  0  0  0  0  0  0
   29.3440   38.3851   64.2092 H   0  0  0  0  0  0  0  0  0  0  0  0
   30.2803   36.5470   62.9857 H   0  0  0  0  0  0  0  0  0  0  0  0
   32.0519   36.4714   62.8295 H   0  0  0  0  0  0  0  0  0  0  0  0
   32.1342   38.8672   59.3966 H   0  0  0  0  0  0  0  0  0  0  0  0
   33.0205   37.6301   57.4619 H   0  0  0  0  0  0  0  0  0  0  0  0
   32.9574   35.1697   57.4383 H   0  0  0  0  0  0  0  0  0  0  0  0
   32.0172   33.9407   59.3523 H   0  0  0  0  0  0  0  0  0  0  0  0
   31.1372   35.1702   61.2945 H   0  0  0  0  0  0  0  0  0  0  0  0
   25.2650   42.7763   66.3575 H   0  0  0  0  0  0  0  0  0  0  0  0
   22.7164   42.0023   66.7723 H   0  0  0  0  0  0  0  0  0  0  0  0
   22.7703   39.4565   67.3864 H   0  0  0  0  0  0  0  0  0  0  0  0
  1  2  1  0  0  0  0
  1 30  1  0  0  0  0
  1 31  1  0  0  0  0
  1 32  1  0  0  0  0
  2  6  1  0  0  0  0
  2  3  1  0  0  0  0
  3  4  2  0  0  0  0
  3 33  1  0  0  0  0
  4 29  1  0  0  0  0
  4  5  1  0  0  0  0
  5  6  2  0  0  0  0
  5  7  1  0  0  0  0
  7  8  2  0  0  0  0
  8  9  1  0  0  0  0
  8 20  1  0  0  0  0
  9 10  1  0  0  0  0
  9 34  1  0  0  0  0
 10 11  2  0  0  0  0
 10 12  1  0  0  0  0
 12 13  1  0  0  0  0
 12 35  1  0  0  0  0
 12 36  1  0  0  0  0
 13 14  1  0  0  0  0
 14 19  2  0  0  0  0
 14 15  1  0  0  0  0
 15 16  2  0  0  0  0
 15 37  1  0  0  0  0
 16 17  1  0  0  0  0
 16 38  1  0  0  0  0
 17 18  2  0  0  0  0
 17 39  1  0  0  0  0
 18 19  1  0  0  0  0
 18 40  1  0  0  0  0
 19 41  1  0  0  0  0
 20 29  1  0  0  0  0
 20 21  1  0  0  0  0
 21 22  2  0  0  0  0
 22 23  1  0  0  0  0
 22 28  1  0  0  0  0
 23 27  1  0  0  0  0
 23 24  2  0  0  0  0
 24 25  1  0  0  0  0
 24 42  1  0  0  0  0
 25 26  2  0  0  0  0
 25 43  1  0  0  0  0
 26 27  1  0  0  0  0
 26 44  1  0  0  0  0
 28 29  2  0  0  0  0
M  END
$$$$
