CHEMBL68738      none
 OpenBabel11202420153D

 45 48  0  0  1  0  0  0  0  0999 V2000
   34.7143   30.9875   54.5642 O   0  0  0  0  0  0  0  0  0  0  0  0
   35.3173   32.2819   54.6206 C   0  0  0  0  0  0  0  0  0  0  0  0
   34.2812   33.3074   55.0852 C   0  0  1  0  0  0  0  0  0  0  0  0
   33.9033   33.0513   56.0750 H   0  0  0  0  0  0  0  0  0  0  0  0
   34.8455   34.6364   55.0848 O   0  0  0  0  0  0  0  0  0  0  0  0
   33.7453   35.5595   55.0247 C   0  0  2  0  0  0  0  0  0  0  0  0
   34.0283   36.4398   54.4476 H   0  0  0  0  0  0  0  0  0  0  0  0
   33.3539   35.9568   56.3794 N   0  0  0  0  0  0  0  0  0  0  0  0
   32.9200   35.1266   57.3698 C   0  0  0  0  0  0  0  0  0  0  0  0
   32.6582   35.8142   58.4434 N   0  0  0  0  0  0  0  0  0  0  0  0
   32.9067   37.1254   58.2108 C   0  0  0  0  0  0  0  0  0  0  0  0
   32.8102   38.3002   58.9756 C   0  0  0  0  0  0  0  0  0  0  0  0
   32.3735   38.2568   60.2880 N   0  0  0  0  0  0  0  0  0  0  0  0
   32.0059   36.9754   60.8957 C   0  0  0  0  0  0  0  0  0  0  0  0
   30.4929   36.7258   60.7279 C   0  0  0  0  0  0  0  0  0  0  0  0
   30.0724   36.0386   62.0508 C   0  0  0  0  0  0  0  0  0  0  0  0
   30.9245   36.7831   63.1086 C   0  0  0  0  0  0  0  0  0  0  0  0
   32.2803   37.0117   62.4093 C   0  0  0  0  0  0  0  0  0  0  0  0
   33.1476   39.4541   58.4089 N   0  0  0  0  0  0  0  0  0  0  0  0
   33.5649   39.5052   57.1572 C   0  0  0  0  0  0  0  0  0  0  0  0
   33.6660   38.4318   56.4018 N   0  0  0  0  0  0  0  0  0  0  0  0
   33.3561   37.2327   56.8838 C   0  0  0  0  0  0  0  0  0  0  0  0
   32.5752   34.8333   54.3330 C   0  0  1  0  0  0  0  0  0  0  0  0
   31.7070   34.7960   54.9909 H   0  0  0  0  0  0  0  0  0  0  0  0
   32.2421   35.4802   53.1032 O   0  0  0  0  0  0  0  0  0  0  0  0
   33.1179   33.4082   54.0660 C   0  0  1  0  0  0  0  0  0  0  0  0
   32.3549   32.6569   54.2701 H   0  0  0  0  0  0  0  0  0  0  0  0
   33.6018   33.2894   52.7266 O   0  0  0  0  0  0  0  0  0  0  0  0
   33.9635   30.9295   53.9575 H   0  0  0  0  0  0  0  0  0  0  0  0
   35.6817   32.5564   53.6307 H   0  0  0  0  0  0  0  0  0  0  0  0
   36.1510   32.2641   55.3226 H   0  0  0  0  0  0  0  0  0  0  0  0
   32.8105   34.0562   57.2774 H   0  0  0  0  0  0  0  0  0  0  0  0
   32.3108   39.0747   60.8057 H   0  0  0  0  0  0  0  0  0  0  0  0
   32.5721   36.1669   60.4329 H   0  0  0  0  0  0  0  0  0  0  0  0
   29.9621   37.6696   60.6028 H   0  0  0  0  0  0  0  0  0  0  0  0
   30.3066   36.0669   59.8797 H   0  0  0  0  0  0  0  0  0  0  0  0
   30.3214   34.9776   62.0311 H   0  0  0  0  0  0  0  0  0  0  0  0
   29.0087   36.1833   62.2401 H   0  0  0  0  0  0  0  0  0  0  0  0
   31.0532   36.1659   63.9979 H   0  0  0  0  0  0  0  0  0  0  0  0
   30.4644   37.7360   63.3699 H   0  0  0  0  0  0  0  0  0  0  0  0
   32.9790   36.2204   62.6812 H   0  0  0  0  0  0  0  0  0  0  0  0
   32.6878   37.9825   62.6917 H   0  0  0  0  0  0  0  0  0  0  0  0
   33.8289   40.4640   56.7360 H   0  0  0  0  0  0  0  0  0  0  0  0
   32.9672   35.5069   52.4639 H   0  0  0  0  0  0  0  0  0  0  0  0
   34.3213   33.8991   52.5127 H   0  0  0  0  0  0  0  0  0  0  0  0
  1  2  1  0  0  0  0
  1 29  1  0  0  0  0
  2  3  1  0  0  0  0
  2 30  1  0  0  0  0
  2 31  1  0  0  0  0
  3  4  1  1  0  0  0
  3 26  1  0  0  0  0
  3  5  1  0  0  0  0
  5  6  1  0  0  0  0
  6  7  1  6  0  0  0
  6  8  1  0  0  0  0
  6 23  1  0  0  0  0
  8 22  1  0  0  0  0
  8  9  1  0  0  0  0
  9 10  2  0  0  0  0
  9 32  1  0  0  0  0
 10 11  1  0  0  0  0
 11 22  2  0  0  0  0
 11 12  1  0  0  0  0
 12 13  1  0  0  0  0
 12 19  2  0  0  0  0
 13 14  1  0  0  0  0
 13 33  1  0  0  0  0
 14 18  1  0  0  0  0
 14 15  1  0  0  0  0
 14 34  1  0  0  0  0
 15 16  1  0  0  0  0
 15 35  1  0  0  0  0
 15 36  1  0  0  0  0
 16 17  1  0  0  0  0
 16 37  1  0  0  0  0
 16 38  1  0  0  0  0
 17 18  1  0  0  0  0
 17 39  1  0  0  0  0
 17 40  1  0  0  0  0
 18 41  1  0  0  0  0
 18 42  1  0  0  0  0
 19 20  1  0  0  0  0
 20 21  2  0  0  0  0
 20 43  1  0  0  0  0
 21 22  1  0  0  0  0
 23 24  1  1  0  0  0
 23 25  1  0  0  0  0
 23 26  1  0  0  0  0
 25 44  1  0  0  0  0
 26 27  1  1  0  0  0
 26 28  1  0  0  0  0
 28 45  1  0  0  0  0
M  END
$$$$
