CHEMBL274274      none
 OpenBabel11202420153D

 47 51  0  0  0  0  0  0  0  0999 V2000
   33.4057   40.7555   59.2227 N   0  0  0  0  0  0  0  0  0  0  0  0
   33.2791   39.4847   58.6933 C   0  0  0  0  0  0  0  0  0  0  0  0
   32.8455   38.5018   59.4444 N   0  0  0  0  0  0  0  0  0  0  0  0
   32.7092   37.2394   58.9566 C   0  0  0  0  0  0  0  0  0  0  0  0
   32.2407   36.2138   59.7958 C   0  0  0  0  0  0  0  0  0  0  0  0
   31.9164   36.4902   61.1256 N   0  0  0  0  0  0  0  0  0  0  0  0
   31.8552   35.4031   62.1059 C   0  0  0  0  0  0  0  0  0  0  0  0
   31.4877   35.9639   63.4554 C   0  0  0  0  0  0  0  0  0  0  0  0
   30.7777   35.1909   64.3551 C   0  0  0  0  0  0  0  0  0  0  0  0
   30.4446   35.7036   65.5949 C   0  0  0  0  0  0  0  0  0  0  0  0
   30.8124   36.9929   65.9310 C   0  0  0  0  0  0  0  0  0  0  0  0
   31.5177   37.7680   65.0294 C   0  0  0  0  0  0  0  0  0  0  0  0
   31.8554   37.2533   63.7917 C   0  0  0  0  0  0  0  0  0  0  0  0
   32.1021   34.9285   59.3002 C   0  0  0  0  0  0  0  0  0  0  0  0
   32.4280   34.6477   57.9845 C   0  0  0  0  0  0  0  0  0  0  0  0
   32.8840   35.6481   57.1481 C   0  0  0  0  0  0  0  0  0  0  0  0
   33.0302   36.9432   57.6247 C   0  0  0  0  0  0  0  0  0  0  0  0
   33.4953   37.9514   56.7823 N   0  0  0  0  0  0  0  0  0  0  0  0
   33.8721   37.9644   55.4908 C   0  0  0  0  0  0  0  0  0  0  0  0
   33.8812   37.0085   54.7358 O   0  0  0  0  0  0  0  0  0  0  0  0
   34.2389   39.2255   55.1818 N   0  0  0  0  0  0  0  0  0  0  0  0
   34.6971   39.6718   53.9366 C   0  0  0  0  0  0  0  0  0  0  0  0
   34.4562   40.9792   53.5342 C   0  0  0  0  0  0  0  0  0  0  0  0
   34.9146   41.4180   52.3076 C   0  0  0  0  0  0  0  0  0  0  0  0
   35.6029   40.5541   51.4755 C   0  0  0  0  0  0  0  0  0  0  0  0
   35.8391   39.2501   51.8707 C   0  0  0  0  0  0  0  0  0  0  0  0
   35.3885   38.8066   53.0985 C   0  0  0  0  0  0  0  0  0  0  0  0
   34.0773   40.0081   56.3340 N   0  0  0  0  0  0  0  0  0  0  0  0
   33.6311   39.2348   57.2877 C   0  0  0  0  0  0  0  0  0  0  0  0
   33.1737   40.9200   60.1501 H   0  0  0  0  0  0  0  0  0  0  0  0
   33.7266   41.4827   58.6667 H   0  0  0  0  0  0  0  0  0  0  0  0
   31.7317   37.4019   61.4003 H   0  0  0  0  0  0  0  0  0  0  0  0
   31.1033   34.6772   61.7969 H   0  0  0  0  0  0  0  0  0  0  0  0
   32.8279   34.9149   62.1680 H   0  0  0  0  0  0  0  0  0  0  0  0
   30.4865   34.1850   64.0907 H   0  0  0  0  0  0  0  0  0  0  0  0
   29.8932   35.0983   66.2991 H   0  0  0  0  0  0  0  0  0  0  0  0
   30.5483   37.3951   66.8980 H   0  0  0  0  0  0  0  0  0  0  0  0
   31.8048   38.7754   65.2919 H   0  0  0  0  0  0  0  0  0  0  0  0
   32.4062   37.8589   63.0871 H   0  0  0  0  0  0  0  0  0  0  0  0
   31.7422   34.1401   59.9447 H   0  0  0  0  0  0  0  0  0  0  0  0
   32.3208   33.6411   57.6083 H   0  0  0  0  0  0  0  0  0  0  0  0
   33.1313   35.4209   56.1216 H   0  0  0  0  0  0  0  0  0  0  0  0
   33.9150   41.6532   54.1817 H   0  0  0  0  0  0  0  0  0  0  0  0
   34.7317   42.4358   51.9960 H   0  0  0  0  0  0  0  0  0  0  0  0
   35.9560   40.8984   50.5148 H   0  0  0  0  0  0  0  0  0  0  0  0
   36.3772   38.5779   51.2187 H   0  0  0  0  0  0  0  0  0  0  0  0
   35.5738   37.7882   53.4067 H   0  0  0  0  0  0  0  0  0  0  0  0
  1  2  1  0  0  0  0
  1 30  1  0  0  0  0
  1 31  1  0  0  0  0
  2 29  1  0  0  0  0
  2  3  2  0  0  0  0
  3  4  1  0  0  0  0
  4 17  2  0  0  0  0
  4  5  1  0  0  0  0
  5  6  1  0  0  0  0
  5 14  2  0  0  0  0
  6  7  1  0  0  0  0
  6 32  1  0  0  0  0
  7  8  1  0  0  0  0
  7 33  1  0  0  0  0
  7 34  1  0  0  0  0
  8 13  2  0  0  0  0
  8  9  1  0  0  0  0
  9 10  2  0  0  0  0
  9 35  1  0  0  0  0
 10 11  1  0  0  0  0
 10 36  1  0  0  0  0
 11 12  2  0  0  0  0
 11 37  1  0  0  0  0
 12 13  1  0  0  0  0
 12 38  1  0  0  0  0
 13 39  1  0  0  0  0
 14 15  1  0  0  0  0
 14 40  1  0  0  0  0
 15 16  2  0  0  0  0
 15 41  1  0  0  0  0
 16 17  1  0  0  0  0
 16 42  1  0  0  0  0
 17 18  1  0  0  0  0
 18 29  1  0  0  0  0
 18 19  1  0  0  0  0
 19 20  2  0  0  0  0
 19 21  1  0  0  0  0
 21 22  1  0  0  0  0
 21 28  1  0  0  0  0
 22 27  2  0  0  0  0
 22 23  1  0  0  0  0
 23 24  2  0  0  0  0
 23 43  1  0  0  0  0
 24 25  1  0  0  0  0
 24 44  1  0  0  0  0
 25 26  2  0  0  0  0
 25 45  1  0  0  0  0
 26 27  1  0  0  0  0
 26 46  1  0  0  0  0
 27 47  1  0  0  0  0
 28 29  2  0  0  0  0
M  END
$$$$
