CHEMBL124788      none
 OpenBabel11202420153D

 38 41  0  0  0  0  0  0  0  0999 V2000
   35.2893   32.2287   55.6521 C   0  0  0  0  0  0  0  0  0  0  0  0
   35.4225   32.5633   54.1651 C   0  0  0  0  0  0  0  0  0  0  0  0
   34.0746   32.3530   53.4724 C   0  0  0  0  0  0  0  0  0  0  0  0
   33.0259   33.2674   54.1090 C   0  0  0  0  0  0  0  0  0  0  0  0
   33.4518   34.7045   53.9537 C   0  0  0  0  0  0  0  0  0  0  0  0
   33.9018   35.1061   52.7993 N   0  0  0  0  0  0  0  0  0  0  0  0
   34.3020   36.3777   52.6079 C   0  0  0  0  0  0  0  0  0  0  0  0
   34.7955   37.0547   51.5720 N   0  0  0  0  0  0  0  0  0  0  0  0
   35.0187   38.3059   51.9494 C   0  0  0  0  0  0  0  0  0  0  0  0
   34.6834   38.4701   53.2122 N   0  0  0  0  0  0  0  0  0  0  0  0
   34.2272   37.2999   53.6826 C   0  0  0  0  0  0  0  0  0  0  0  0
   33.7341   36.8472   54.9184 C   0  0  0  0  0  0  0  0  0  0  0  0
   33.5381   37.4359   56.1007 N   0  0  0  0  0  0  0  0  0  0  0  0
   33.0459   36.5676   56.9630 C   0  0  0  0  0  0  0  0  0  0  0  0
   32.7014   36.8537   58.3687 C   0  0  0  0  0  0  0  0  0  0  0  0
   32.8951   38.1343   58.8925 C   0  0  0  0  0  0  0  0  0  0  0  0
   32.5662   38.3957   60.2061 C   0  0  0  0  0  0  0  0  0  0  0  0
   32.0552   37.3909   61.0089 C   0  0  0  0  0  0  0  0  0  0  0  0
   31.8650   36.1185   60.5001 C   0  0  0  0  0  0  0  0  0  0  0  0
   32.1844   35.8426   59.1855 C   0  0  0  0  0  0  0  0  0  0  0  0
   31.9458   34.2456   58.5483 Cl  0  0  0  0  0  0  0  0  0  0  0  0
   32.9072   35.3566   56.3380 N   0  0  0  0  0  0  0  0  0  0  0  0
   33.3509   35.5364   55.0196 N   0  0  0  0  0  0  0  0  0  0  0  0
   36.2496   32.3783   56.1457 H   0  0  0  0  0  0  0  0  0  0  0  0
   34.5423   32.8801   56.1057 H   0  0  0  0  0  0  0  0  0  0  0  0
   34.9812   31.1892   55.7645 H   0  0  0  0  0  0  0  0  0  0  0  0
   36.1694   31.9117   53.7117 H   0  0  0  0  0  0  0  0  0  0  0  0
   35.7305   33.6028   54.0528 H   0  0  0  0  0  0  0  0  0  0  0  0
   33.7665   31.3135   53.5847 H   0  0  0  0  0  0  0  0  0  0  0  0
   34.1694   32.5913   52.4130 H   0  0  0  0  0  0  0  0  0  0  0  0
   32.9310   33.0289   55.1685 H   0  0  0  0  0  0  0  0  0  0  0  0
   32.0657   33.1176   53.6155 H   0  0  0  0  0  0  0  0  0  0  0  0
   35.4185   39.0803   51.3116 H   0  0  0  0  0  0  0  0  0  0  0  0
   33.2980   38.9187   58.2691 H   0  0  0  0  0  0  0  0  0  0  0  0
   32.7119   39.3865   60.6106 H   0  0  0  0  0  0  0  0  0  0  0  0
   31.8033   37.6011   62.0379 H   0  0  0  0  0  0  0  0  0  0  0  0
   31.4654   35.3395   61.1324 H   0  0  0  0  0  0  0  0  0  0  0  0
   32.5686   34.5365   56.7299 H   0  0  0  0  0  0  0  0  0  0  0  0
  1  2  1  0  0  0  0
  1 24  1  0  0  0  0
  1 25  1  0  0  0  0
  1 26  1  0  0  0  0
  2  3  1  0  0  0  0
  2 27  1  0  0  0  0
  2 28  1  0  0  0  0
  3  4  1  0  0  0  0
  3 29  1  0  0  0  0
  3 30  1  0  0  0  0
  4  5  1  0  0  0  0
  4 31  1  0  0  0  0
  4 32  1  0  0  0  0
  5 23  1  0  0  0  0
  5  6  2  0  0  0  0
  6  7  1  0  0  0  0
  7 11  1  0  0  0  0
  7  8  2  0  0  0  0
  8  9  1  0  0  0  0
  9 10  2  0  0  0  0
  9 33  1  0  0  0  0
 10 11  1  0  0  0  0
 11 12  2  0  0  0  0
 12 23  1  0  0  0  0
 12 13  1  0  0  0  0
 13 14  2  0  0  0  0
 14 15  1  0  0  0  0
 14 22  1  0  0  0  0
 15 20  2  0  0  0  0
 15 16  1  0  0  0  0
 16 17  2  0  0  0  0
 16 34  1  0  0  0  0
 17 18  1  0  0  0  0
 17 35  1  0  0  0  0
 18 19  2  0  0  0  0
 18 36  1  0  0  0  0
 19 20  1  0  0  0  0
 19 37  1  0  0  0  0
 20 21  1  0  0  0  0
 22 23  1  0  0  0  0
 22 38  1  0  0  0  0
M  END
$$$$
