CHEMBL272679      none
 OpenBabel11202420153D

 59 62  0  0  1  0  0  0  0  0999 V2000
   28.2793   29.8306   67.2017 C   0  0  0  0  0  0  0  0  0  0  0  0
   28.2620   30.9320   66.1731 C   0  0  0  0  0  0  0  0  0  0  0  0
   27.3967   31.0325   65.1436 C   0  0  0  0  0  0  0  0  0  0  0  0
   27.7286   32.2044   64.4384 C   0  0  0  0  0  0  0  0  0  0  0  0
   28.7950   32.7576   65.0778 C   0  0  0  0  0  0  0  0  0  0  0  0
   29.4878   34.0014   64.6899 C   0  0  0  0  0  0  0  0  0  0  0  0
   29.5315   35.0131   65.5491 N   0  0  0  0  0  0  0  0  0  0  0  0
   30.1463   36.1473   65.2323 C   0  0  0  0  0  0  0  0  0  0  0  0
   30.1880   37.2027   66.1374 N   0  0  0  0  0  0  0  0  0  0  0  0
   29.6024   37.0785   67.3449 C   0  0  0  0  0  0  0  0  0  0  0  0
   29.0390   36.0466   67.6422 O   0  0  0  0  0  0  0  0  0  0  0  0
   29.6474   38.2219   68.3256 C   0  0  0  0  0  0  0  0  0  0  0  0
   30.8949   38.0932   69.2020 C   0  0  2  0  0  0  0  0  0  0  0  0
   30.8440   36.7719   69.9743 C   0  0  0  0  0  0  0  0  0  0  0  0
   32.0536   36.6861   70.9076 C   0  0  0  0  0  0  0  0  0  0  0  0
   32.0273   37.8085   71.8532 N   0  3  1  0  0  0  0  0  0  0  0  0
   31.1564   37.7962   72.3625 H   0  0  0  0  0  0  0  0  0  0  0  0
   33.1463   37.6790   72.7960 C   0  0  0  0  0  0  0  0  0  0  0  0
   32.1480   39.0768   71.1241 C   0  0  0  0  0  0  0  0  0  0  0  0
   30.9421   39.2546   70.1992 C   0  0  0  0  0  0  0  0  0  0  0  0
   30.7539   36.2640   63.9840 C   0  0  0  0  0  0  0  0  0  0  0  0
   30.6830   35.1855   63.1079 C   0  0  0  0  0  0  0  0  0  0  0  0
   31.2730   35.2611   61.8447 N   0  0  0  0  0  0  0  0  0  0  0  0
   31.4349   36.4219   61.0773 N   0  0  0  0  0  0  0  0  0  0  0  0
   32.0221   36.0931   59.9558 C   0  0  0  0  0  0  0  0  0  0  0  0
   32.3858   37.0390   58.8405 C   0  0  0  0  0  0  0  0  0  0  0  0
   32.2554   34.7128   59.9680 C   0  0  0  0  0  0  0  0  0  0  0  0
   31.7875   34.2208   61.1376 C   0  0  0  0  0  0  0  0  0  0  0  0
   31.8292   32.7799   61.5773 C   0  0  0  0  0  0  0  0  0  0  0  0
   30.0518   34.0813   63.4900 N   0  0  0  0  0  0  0  0  0  0  0  0
   29.1047   31.9749   66.1301 O   0  0  0  0  0  0  0  0  0  0  0  0
   29.0865   30.0094   67.9120 H   0  0  0  0  0  0  0  0  0  0  0  0
   27.3268   29.8129   67.7311 H   0  0  0  0  0  0  0  0  0  0  0  0
   28.4373   28.8728   66.7058 H   0  0  0  0  0  0  0  0  0  0  0  0
   26.5976   30.3456   64.9073 H   0  0  0  0  0  0  0  0  0  0  0  0
   27.2339   32.5894   63.5590 H   0  0  0  0  0  0  0  0  0  0  0  0
   30.6386   38.0281   65.8996 H   0  0  0  0  0  0  0  0  0  0  0  0
   29.6813   39.1658   67.7816 H   0  0  0  0  0  0  0  0  0  0  0  0
   28.7574   38.1966   68.9542 H   0  0  0  0  0  0  0  0  0  0  0  0
   31.7855   38.1158   68.5740 H   0  0  0  0  0  0  0  0  0  0  0  0
   29.9270   36.7288   70.5620 H   0  0  0  0  0  0  0  0  0  0  0  0
   30.8663   35.9387   69.2720 H   0  0  0  0  0  0  0  0  0  0  0  0
   32.9700   36.7290   70.3189 H   0  0  0  0  0  0  0  0  0  0  0  0
   32.0201   35.7464   71.4590 H   0  0  0  0  0  0  0  0  0  0  0  0
   33.1238   38.5085   73.5027 H   0  0  0  0  0  0  0  0  0  0  0  0
   33.0576   36.7375   73.3380 H   0  0  0  0  0  0  0  0  0  0  0  0
   34.0877   37.6949   72.2470 H   0  0  0  0  0  0  0  0  0  0  0  0
   33.0622   39.0688   70.5308 H   0  0  0  0  0  0  0  0  0  0  0  0
   32.1844   39.9018   71.8356 H   0  0  0  0  0  0  0  0  0  0  0  0
   31.0344   40.1960   69.6574 H   0  0  0  0  0  0  0  0  0  0  0  0
   30.0271   39.2631   70.7915 H   0  0  0  0  0  0  0  0  0  0  0  0
   31.2646   37.1725   63.7012 H   0  0  0  0  0  0  0  0  0  0  0  0
   31.5556   37.1082   58.1375 H   0  0  0  0  0  0  0  0  0  0  0  0
   32.5945   38.0255   59.2544 H   0  0  0  0  0  0  0  0  0  0  0  0
   33.2701   36.6676   58.3228 H   0  0  0  0  0  0  0  0  0  0  0  0
   32.7265   34.1414   59.1818 H   0  0  0  0  0  0  0  0  0  0  0  0
   30.9214   32.2736   61.2493 H   0  0  0  0  0  0  0  0  0  0  0  0
   32.6977   32.2906   61.1365 H   0  0  0  0  0  0  0  0  0  0  0  0
   31.8986   32.7336   62.6641 H   0  0  0  0  0  0  0  0  0  0  0  0
  1  2  1  0  0  0  0
  1 32  1  0  0  0  0
  1 33  1  0  0  0  0
  1 34  1  0  0  0  0
  2 31  1  0  0  0  0
  2  3  2  0  0  0  0
  3  4  1  0  0  0  0
  3 35  1  0  0  0  0
  4  5  2  0  0  0  0
  4 36  1  0  0  0  0
  5  6  1  0  0  0  0
  5 31  1  0  0  0  0
  6 30  2  0  0  0  0
  6  7  1  0  0  0  0
  7  8  2  0  0  0  0
  8  9  1  0  0  0  0
  8 21  1  0  0  0  0
  9 10  1  0  0  0  0
  9 37  1  0  0  0  0
 10 11  2  0  0  0  0
 10 12  1  0  0  0  0
 12 13  1  0  0  0  0
 12 38  1  0  0  0  0
 12 39  1  0  0  0  0
 13 20  1  0  0  0  0
 13 14  1  0  0  0  0
 13 40  1  6  0  0  0
 14 15  1  0  0  0  0
 14 41  1  0  0  0  0
 14 42  1  0  0  0  0
 15 16  1  0  0  0  0
 15 43  1  0  0  0  0
 15 44  1  0  0  0  0
 16 17  1  1  0  0  0
 16 18  1  0  0  0  0
 16 19  1  0  0  0  0
 18 45  1  0  0  0  0
 18 46  1  0  0  0  0
 18 47  1  0  0  0  0
 19 20  1  0  0  0  0
 19 48  1  0  0  0  0
 19 49  1  0  0  0  0
 20 50  1  0  0  0  0
 20 51  1  0  0  0  0
 21 22  2  0  0  0  0
 21 52  1  0  0  0  0
 22 23  1  0  0  0  0
 22 30  1  0  0  0  0
 23 28  1  0  0  0  0
 23 24  1  0  0  0  0
 24 25  2  0  0  0  0
 25 26  1  0  0  0  0
 25 27  1  0  0  0  0
 26 53  1  0  0  0  0
 26 54  1  0  0  0  0
 26 55  1  0  0  0  0
 27 28  2  0  0  0  0
 27 56  1  0  0  0  0
 28 29  1  0  0  0  0
 29 57  1  0  0  0  0
 29 58  1  0  0  0  0
 29 59  1  0  0  0  0
M  CHG  1  16   1
M  END
$$$$
