CHEMBL447192      none
 OpenBabel11202420153D

 31 33  0  0  0  0  0  0  0  0999 V2000
   33.7878   39.7183   55.5143 N   0  0  0  0  0  0  0  0  0  0  0  0
   33.4515   39.2101   56.4730 C   0  0  0  0  0  0  0  0  0  0  0  0
   33.0276   38.5697   57.6816 C   0  0  0  0  0  0  0  0  0  0  0  0
   32.6586   37.2039   57.6819 C   0  0  0  0  0  0  0  0  0  0  0  0
   32.7018   36.4074   56.4427 C   0  0  0  0  0  0  0  0  0  0  0  0
   32.9343   35.0679   56.3606 C   0  0  0  0  0  0  0  0  0  0  0  0
   32.8849   34.7311   54.9952 C   0  0  0  0  0  0  0  0  0  0  0  0
   32.6277   35.8679   54.3162 C   0  0  0  0  0  0  0  0  0  0  0  0
   32.5125   36.8767   55.1936 O   0  0  0  0  0  0  0  0  0  0  0  0
   32.2580   36.6295   58.8914 C   0  0  0  0  0  0  0  0  0  0  0  0
   32.2259   37.4142   60.0378 C   0  0  0  0  0  0  0  0  0  0  0  0
   31.7962   36.8100   61.3218 C   0  0  0  0  0  0  0  0  0  0  0  0
   32.6672   36.7863   62.4101 C   0  0  0  0  0  0  0  0  0  0  0  0
   32.2636   36.2180   63.6011 C   0  0  0  0  0  0  0  0  0  0  0  0
   30.9978   35.6719   63.7161 C   0  0  0  0  0  0  0  0  0  0  0  0
   30.1294   35.6921   62.6394 C   0  0  0  0  0  0  0  0  0  0  0  0
   30.5217   36.2582   61.4437 C   0  0  0  0  0  0  0  0  0  0  0  0
   32.5788   38.6953   60.0048 N   0  0  0  0  0  0  0  0  0  0  0  0
   32.9700   39.2864   58.8894 C   0  0  0  0  0  0  0  0  0  0  0  0
   33.3268   40.6237   58.9108 N   0  0  0  0  0  0  0  0  0  0  0  0
   33.1206   34.3946   57.1842 H   0  0  0  0  0  0  0  0  0  0  0  0
   33.0257   33.7479   54.5710 H   0  0  0  0  0  0  0  0  0  0  0  0
   32.5268   35.9515   53.2442 H   0  0  0  0  0  0  0  0  0  0  0  0
   31.9731   35.5885   58.9338 H   0  0  0  0  0  0  0  0  0  0  0  0
   33.6559   37.2120   62.3213 H   0  0  0  0  0  0  0  0  0  0  0  0
   32.9373   36.1993   64.4449 H   0  0  0  0  0  0  0  0  0  0  0  0
   30.6862   35.2285   64.6502 H   0  0  0  0  0  0  0  0  0  0  0  0
   29.1424   35.2644   62.7350 H   0  0  0  0  0  0  0  0  0  0  0  0
   29.8427   36.2741   60.6040 H   0  0  0  0  0  0  0  0  0  0  0  0
   33.2889   41.1226   59.7418 H   0  0  0  0  0  0  0  0  0  0  0  0
   33.6145   41.0621   58.0947 H   0  0  0  0  0  0  0  0  0  0  0  0
  1  2  3  0  0  0  0
  2  3  1  0  0  0  0
  3 19  2  0  0  0  0
  3  4  1  0  0  0  0
  4  5  1  0  0  0  0
  4 10  2  0  0  0  0
  5  9  1  0  0  0  0
  5  6  2  0  0  0  0
  6  7  1  0  0  0  0
  6 21  1  0  0  0  0
  7  8  2  0  0  0  0
  7 22  1  0  0  0  0
  8  9  1  0  0  0  0
  8 23  1  0  0  0  0
 10 11  1  0  0  0  0
 10 24  1  0  0  0  0
 11 12  1  0  0  0  0
 11 18  2  0  0  0  0
 12 17  2  0  0  0  0
 12 13  1  0  0  0  0
 13 14  2  0  0  0  0
 13 25  1  0  0  0  0
 14 15  1  0  0  0  0
 14 26  1  0  0  0  0
 15 16  2  0  0  0  0
 15 27  1  0  0  0  0
 16 17  1  0  0  0  0
 16 28  1  0  0  0  0
 17 29  1  0  0  0  0
 18 19  1  0  0  0  0
 19 20  1  0  0  0  0
 20 30  1  0  0  0  0
 20 31  1  0  0  0  0
M  END
$$$$
