CHEMBL1222145      none
 OpenBabel11202420153D

 38 40  0  0  0  0  0  0  0  0999 V2000
   31.3059   33.3759   62.1161 C   0  0  0  0  0  0  0  0  0  0  0  0
   31.9682   33.2925   60.7394 C   0  0  0  0  0  0  0  0  0  0  0  0
   32.1086   34.6075   60.1979 O   0  0  0  0  0  0  0  0  0  0  0  0
   32.6791   34.7107   58.9790 C   0  0  0  0  0  0  0  0  0  0  0  0
   33.0471   33.7097   58.3927 O   0  0  0  0  0  0  0  0  0  0  0  0
   32.8494   35.9830   58.3826 C   0  0  0  0  0  0  0  0  0  0  0  0
   32.4860   37.1958   58.9332 C   0  0  0  0  0  0  0  0  0  0  0  0
   31.8485   37.3245   60.2639 C   0  0  0  0  0  0  0  0  0  0  0  0
   30.4589   37.2975   60.3803 C   0  0  0  0  0  0  0  0  0  0  0  0
   29.8711   37.4116   61.6235 C   0  0  0  0  0  0  0  0  0  0  0  0
   30.6569   37.5651   62.7517 C   0  0  0  0  0  0  0  0  0  0  0  0
   32.0356   37.5983   62.6422 C   0  0  0  0  0  0  0  0  0  0  0  0
   32.6353   37.4789   61.4053 C   0  0  0  0  0  0  0  0  0  0  0  0
   32.7597   38.2271   58.1617 N   0  0  0  0  0  0  0  0  0  0  0  0
   33.3196   37.9814   57.0157 C   0  0  0  0  0  0  0  0  0  0  0  0
   33.6707   38.9474   56.0915 N   0  0  0  0  0  0  0  0  0  0  0  0
   34.2486   38.5885   54.9280 C   0  0  0  0  0  0  0  0  0  0  0  0
   34.4612   37.4138   54.6913 O   0  0  0  0  0  0  0  0  0  0  0  0
   34.6210   39.6127   53.9480 C   0  0  0  0  0  0  0  0  0  0  0  0
   35.2154   39.3884   52.7388 C   0  0  0  0  0  0  0  0  0  0  0  0
   35.3858   40.6433   52.1340 C   0  0  0  0  0  0  0  0  0  0  0  0
   34.9019   41.5678   52.9928 C   0  0  0  0  0  0  0  0  0  0  0  0
   34.4420   40.9429   54.0845 O   0  0  0  0  0  0  0  0  0  0  0  0
   33.5700   36.3042   56.8074 S   0  0  0  0  0  0  0  0  0  0  0  0
   31.9247   33.9784   62.7810 H   0  0  0  0  0  0  0  0  0  0  0  0
   30.3224   33.8357   62.0190 H   0  0  0  0  0  0  0  0  0  0  0  0
   31.1989   32.3728   62.5291 H   0  0  0  0  0  0  0  0  0  0  0  0
   31.3494   32.6900   60.0744 H   0  0  0  0  0  0  0  0  0  0  0  0
   32.9516   32.8327   60.8365 H   0  0  0  0  0  0  0  0  0  0  0  0
   29.8442   37.1831   59.4996 H   0  0  0  0  0  0  0  0  0  0  0  0
   28.7954   37.3861   61.7153 H   0  0  0  0  0  0  0  0  0  0  0  0
   30.1921   37.6589   63.7221 H   0  0  0  0  0  0  0  0  0  0  0  0
   32.6438   37.7176   63.5266 H   0  0  0  0  0  0  0  0  0  0  0  0
   33.7118   37.5047   61.3210 H   0  0  0  0  0  0  0  0  0  0  0  0
   33.5013   39.8836   56.2802 H   0  0  0  0  0  0  0  0  0  0  0  0
   35.4976   38.4306   52.3270 H   0  0  0  0  0  0  0  0  0  0  0  0
   35.8243   40.8344   51.1657 H   0  0  0  0  0  0  0  0  0  0  0  0
   34.8887   42.6348   52.8264 H   0  0  0  0  0  0  0  0  0  0  0  0
  1  2  1  0  0  0  0
  1 25  1  0  0  0  0
  1 26  1  0  0  0  0
  1 27  1  0  0  0  0
  2  3  1  0  0  0  0
  2 28  1  0  0  0  0
  2 29  1  0  0  0  0
  3  4  1  0  0  0  0
  4  5  2  0  0  0  0
  4  6  1  0  0  0  0
  6 24  1  0  0  0  0
  6  7  2  0  0  0  0
  7  8  1  0  0  0  0
  7 14  1  0  0  0  0
  8 13  2  0  0  0  0
  8  9  1  0  0  0  0
  9 10  2  0  0  0  0
  9 30  1  0  0  0  0
 10 11  1  0  0  0  0
 10 31  1  0  0  0  0
 11 12  2  0  0  0  0
 11 32  1  0  0  0  0
 12 13  1  0  0  0  0
 12 33  1  0  0  0  0
 13 34  1  0  0  0  0
 14 15  2  0  0  0  0
 15 16  1  0  0  0  0
 15 24  1  0  0  0  0
 16 17  1  0  0  0  0
 16 35  1  0  0  0  0
 17 18  2  0  0  0  0
 17 19  1  0  0  0  0
 19 23  1  0  0  0  0
 19 20  2  0  0  0  0
 20 21  1  0  0  0  0
 20 36  1  0  0  0  0
 21 22  2  0  0  0  0
 21 37  1  0  0  0  0
 22 23  1  0  0  0  0
 22 38  1  0  0  0  0
M  END
$$$$
