CHEMBL166429      none
 OpenBabel11202420153D

 31 32  0  0  0  0  0  0  0  0999 V2000
   31.8077   34.3619   60.2397 S   0  0  0  0  0  0  0  0  0  0  0  0
   31.6628   35.7185   61.2740 C   0  0  0  0  0  0  0  0  0  0  0  0
   31.1489   35.5428   62.6797 C   0  0  0  0  0  0  0  0  0  0  0  0
   31.1185   36.8798   63.3742 C   0  0  0  0  0  0  0  0  0  0  0  0
   32.2217   37.3149   64.0846 C   0  0  0  0  0  0  0  0  0  0  0  0
   32.1955   38.5435   64.7176 C   0  0  0  0  0  0  0  0  0  0  0  0
   31.0626   39.3325   64.6490 C   0  0  0  0  0  0  0  0  0  0  0  0
   29.9574   38.8952   63.9429 C   0  0  0  0  0  0  0  0  0  0  0  0
   29.9855   37.6689   63.3055 C   0  0  0  0  0  0  0  0  0  0  0  0
   32.0085   36.9436   60.8310 N   0  0  0  0  0  0  0  0  0  0  0  0
   32.4863   37.1071   59.5242 N   0  0  0  0  0  0  0  0  0  0  0  0
   32.8191   38.2869   59.0976 C   0  0  0  0  0  0  0  0  0  0  0  0
   33.3220   38.4588   57.7220 C   0  0  0  0  0  0  0  0  0  0  0  0
   33.4449   37.3571   56.8655 C   0  0  0  0  0  0  0  0  0  0  0  0
   33.9216   37.5726   55.5845 C   0  0  0  0  0  0  0  0  0  0  0  0
   34.2632   38.8554   55.1958 C   0  0  0  0  0  0  0  0  0  0  0  0
   34.1327   39.8757   56.0221 N   0  0  0  0  0  0  0  0  0  0  0  0
   33.6837   39.7230   57.2504 C   0  0  0  0  0  0  0  0  0  0  0  0
   30.1421   35.1264   62.6490 H   0  0  0  0  0  0  0  0  0  0  0  0
   31.8059   34.8652   63.2247 H   0  0  0  0  0  0  0  0  0  0  0  0
   33.1053   36.6967   64.1419 H   0  0  0  0  0  0  0  0  0  0  0  0
   33.0587   38.8851   65.2696 H   0  0  0  0  0  0  0  0  0  0  0  0
   31.0404   40.2904   65.1472 H   0  0  0  0  0  0  0  0  0  0  0  0
   29.0721   39.5113   63.8896 H   0  0  0  0  0  0  0  0  0  0  0  0
   29.1220   37.3269   62.7542 H   0  0  0  0  0  0  0  0  0  0  0  0
   31.9264   37.7122   61.4171 H   0  0  0  0  0  0  0  0  0  0  0  0
   32.7278   39.1425   59.7501 H   0  0  0  0  0  0  0  0  0  0  0  0
   33.1750   36.3651   57.1965 H   0  0  0  0  0  0  0  0  0  0  0  0
   34.0300   36.7470   54.8967 H   0  0  0  0  0  0  0  0  0  0  0  0
   34.6393   39.0252   54.1978 H   0  0  0  0  0  0  0  0  0  0  0  0
   33.5947   40.5821   57.8987 H   0  0  0  0  0  0  0  0  0  0  0  0
  1  2  2  0  0  0  0
  2  3  1  0  0  0  0
  2 10  1  0  0  0  0
  3  4  1  0  0  0  0
  3 19  1  0  0  0  0
  3 20  1  0  0  0  0
  4  9  2  0  0  0  0
  4  5  1  0  0  0  0
  5  6  2  0  0  0  0
  5 21  1  0  0  0  0
  6  7  1  0  0  0  0
  6 22  1  0  0  0  0
  7  8  2  0  0  0  0
  7 23  1  0  0  0  0
  8  9  1  0  0  0  0
  8 24  1  0  0  0  0
  9 25  1  0  0  0  0
 10 11  1  0  0  0  0
 10 26  1  0  0  0  0
 11 12  2  0  0  0  0
 12 13  1  0  0  0  0
 12 27  1  0  0  0  0
 13 18  2  0  0  0  0
 13 14  1  0  0  0  0
 14 15  2  0  0  0  0
 14 28  1  0  0  0  0
 15 16  1  0  0  0  0
 15 29  1  0  0  0  0
 16 17  2  0  0  0  0
 16 30  1  0  0  0  0
 17 18  1  0  0  0  0
 18 31  1  0  0  0  0
M  END
$$$$
