CHEMBL17859      none
 OpenBabel11202420153D

 32 34  0  0  1  0  0  0  0  0999 V2000
   33.2683   40.6933   58.8073 N   0  0  0  0  0  0  0  0  0  0  0  0
   33.1935   39.4074   58.3016 C   0  0  0  0  0  0  0  0  0  0  0  0
   33.5833   39.1309   56.9802 C   0  0  0  0  0  0  0  0  0  0  0  0
   34.0789   39.8705   55.9588 N   0  0  0  0  0  0  0  0  0  0  0  0
   34.2828   39.1033   54.9277 C   0  0  0  0  0  0  0  0  0  0  0  0
   33.9350   37.8193   55.2265 N   0  0  0  0  0  0  0  0  0  0  0  0
   34.0198   36.6664   54.3266 C   0  0  1  0  0  0  0  0  0  0  0  0
   35.0217   35.3357   55.0867 S   0  0  0  0  0  0  0  0  0  0  0  0
   33.7342   34.0289   55.0713 C   0  0  2  0  0  0  0  0  0  0  0  0
   34.3426   32.6688   54.7234 C   0  0  0  0  0  0  0  0  0  0  0  0
   34.9623   32.1133   55.8850 O   0  0  0  0  0  0  0  0  0  0  0  0
   32.7841   34.5180   53.9466 C   0  0  2  0  0  0  0  0  0  0  0  0
   33.3544   34.2332   52.6677 O   0  0  0  0  0  0  0  0  0  0  0  0
   32.6250   36.0399   54.1222 C   0  0  2  0  0  0  0  0  0  0  0  0
   32.0142   36.5986   52.9572 O   0  0  0  0  0  0  0  0  0  0  0  0
   33.4906   37.8050   56.5244 C   0  0  0  0  0  0  0  0  0  0  0  0
   33.0309   36.8689   57.3484 N   0  0  0  0  0  0  0  0  0  0  0  0
   32.6711   37.1753   58.5784 C   0  0  0  0  0  0  0  0  0  0  0  0
   32.0771   35.9150   59.6140 Cl  0  0  0  0  0  0  0  0  0  0  0  0
   32.7460   38.4065   59.0529 N   0  0  0  0  0  0  0  0  0  0  0  0
   32.9925   40.8724   59.7198 H   0  0  0  0  0  0  0  0  0  0  0  0
   33.6005   41.4148   58.2505 H   0  0  0  0  0  0  0  0  0  0  0  0
   34.6700   39.4348   53.9756 H   0  0  0  0  0  0  0  0  0  0  0  0
   34.4469   36.9636   53.3688 H   0  0  0  0  0  0  0  0  0  0  0  0
   33.2134   33.9860   56.0279 H   0  0  0  0  0  0  0  0  0  0  0  0
   33.5574   31.9981   54.3745 H   0  0  0  0  0  0  0  0  0  0  0  0
   35.0884   32.7945   53.9385 H   0  0  0  0  0  0  0  0  0  0  0  0
   34.3561   31.9739   56.6255 H   0  0  0  0  0  0  0  0  0  0  0  0
   31.8147   34.0285   54.0392 H   0  0  0  0  0  0  0  0  0  0  0  0
   34.1668   34.7235   52.4813 H   0  0  0  0  0  0  0  0  0  0  0  0
   32.0012   36.2437   54.9925 H   0  0  0  0  0  0  0  0  0  0  0  0
   32.5138   36.4517   52.1425 H   0  0  0  0  0  0  0  0  0  0  0  0
  1  2  1  0  0  0  0
  1 21  1  0  0  0  0
  1 22  1  0  0  0  0
  2 20  2  0  0  0  0
  2  3  1  0  0  0  0
  3 16  2  0  0  0  0
  3  4  1  0  0  0  0
  4  5  2  0  0  0  0
  5  6  1  0  0  0  0
  5 23  1  0  0  0  0
  6  7  1  0  0  0  0
  6 16  1  0  0  0  0
  7 14  1  0  0  0  0
  7  8  1  0  0  0  0
  7 24  1  6  0  0  0
  8  9  1  0  0  0  0
  9 10  1  0  0  0  0
  9 12  1  0  0  0  0
  9 25  1  1  0  0  0
 10 11  1  0  0  0  0
 10 26  1  0  0  0  0
 10 27  1  0  0  0  0
 11 28  1  0  0  0  0
 12 13  1  0  0  0  0
 12 14  1  0  0  0  0
 12 29  1  1  0  0  0
 13 30  1  0  0  0  0
 14 15  1  0  0  0  0
 14 31  1  1  0  0  0
 15 32  1  0  0  0  0
 16 17  1  0  0  0  0
 17 18  2  0  0  0  0
 18 19  1  0  0  0  0
 18 20  1  0  0  0  0
M  END
$$$$
