CHEMBL286947      none
 OpenBabel11202420153D

 35 38  0  0  0  0  0  0  0  0999 V2000
   31.3337   32.7780   60.4480 C   0  0  0  0  0  0  0  0  0  0  0  0
   31.5994   34.2614   60.4347 C   0  0  0  0  0  0  0  0  0  0  0  0
   32.0579   34.9541   59.4230 N   0  0  0  0  0  0  0  0  0  0  0  0
   32.1713   36.3019   59.7959 N   0  0  0  0  0  0  0  0  0  0  0  0
   32.6254   37.3428   58.9747 C   0  0  0  0  0  0  0  0  0  0  0  0
   33.0056   37.0796   57.6651 C   0  0  0  0  0  0  0  0  0  0  0  0
   33.4524   38.1053   56.8541 C   0  0  0  0  0  0  0  0  0  0  0  0
   33.5232   39.3954   57.3428 C   0  0  0  0  0  0  0  0  0  0  0  0
   33.1442   39.6653   58.6524 C   0  0  0  0  0  0  0  0  0  0  0  0
   33.2152   40.9701   59.1460 N   0  0  0  0  0  0  0  0  0  0  0  0
   32.6899   38.6381   59.4674 C   0  0  0  0  0  0  0  0  0  0  0  0
   31.7721   36.4268   61.0707 C   0  0  0  0  0  0  0  0  0  0  0  0
   31.3995   35.1434   61.4997 C   0  0  0  0  0  0  0  0  0  0  0  0
   30.9026   34.9371   62.8690 C   0  0  0  0  0  0  0  0  0  0  0  0
   30.7288   33.8340   63.3556 O   0  0  0  0  0  0  0  0  0  0  0  0
   30.6262   36.2006   63.6009 C   0  0  0  0  0  0  0  0  0  0  0  0
   29.9546   36.1656   64.8230 C   0  0  0  0  0  0  0  0  0  0  0  0
   29.6975   37.3408   65.4945 C   0  0  0  0  0  0  0  0  0  0  0  0
   30.1056   38.5516   64.9558 C   0  0  0  0  0  0  0  0  0  0  0  0
   30.7838   38.5973   63.7545 C   0  0  0  0  0  0  0  0  0  0  0  0
   31.0509   37.4216   63.0547 C   0  0  0  0  0  0  0  0  0  0  0  0
   31.7060   37.5055   61.8716 O   0  0  0  0  0  0  0  0  0  0  0  0
   30.3081   32.5898   60.1305 H   0  0  0  0  0  0  0  0  0  0  0  0
   32.0226   32.2795   59.7660 H   0  0  0  0  0  0  0  0  0  0  0  0
   31.4783   32.3922   61.4571 H   0  0  0  0  0  0  0  0  0  0  0  0
   32.9515   36.0720   57.2799 H   0  0  0  0  0  0  0  0  0  0  0  0
   33.7469   37.8980   55.8360 H   0  0  0  0  0  0  0  0  0  0  0  0
   33.8729   40.1949   56.7066 H   0  0  0  0  0  0  0  0  0  0  0  0
   33.5293   41.6884   58.5747 H   0  0  0  0  0  0  0  0  0  0  0  0
   32.9506   41.1579   60.0600 H   0  0  0  0  0  0  0  0  0  0  0  0
   32.3910   38.8459   60.4841 H   0  0  0  0  0  0  0  0  0  0  0  0
   29.6372   35.2214   65.2407 H   0  0  0  0  0  0  0  0  0  0  0  0
   29.1780   37.3189   66.4410 H   0  0  0  0  0  0  0  0  0  0  0  0
   29.8996   39.4689   65.4872 H   0  0  0  0  0  0  0  0  0  0  0  0
   31.0961   39.5479   63.3481 H   0  0  0  0  0  0  0  0  0  0  0  0
  1  2  1  0  0  0  0
  1 23  1  0  0  0  0
  1 24  1  0  0  0  0
  1 25  1  0  0  0  0
  2 13  1  0  0  0  0
  2  3  2  0  0  0  0
  3  4  1  0  0  0  0
  4  5  1  0  0  0  0
  4 12  1  0  0  0  0
  5 11  2  0  0  0  0
  5  6  1  0  0  0  0
  6  7  2  0  0  0  0
  6 26  1  0  0  0  0
  7  8  1  0  0  0  0
  7 27  1  0  0  0  0
  8  9  2  0  0  0  0
  8 28  1  0  0  0  0
  9 10  1  0  0  0  0
  9 11  1  0  0  0  0
 10 29  1  0  0  0  0
 10 30  1  0  0  0  0
 11 31  1  0  0  0  0
 12 22  1  0  0  0  0
 12 13  2  0  0  0  0
 13 14  1  0  0  0  0
 14 15  2  0  0  0  0
 14 16  1  0  0  0  0
 16 21  2  0  0  0  0
 16 17  1  0  0  0  0
 17 18  2  0  0  0  0
 17 32  1  0  0  0  0
 18 19  1  0  0  0  0
 18 33  1  0  0  0  0
 19 20  2  0  0  0  0
 19 34  1  0  0  0  0
 20 21  1  0  0  0  0
 20 35  1  0  0  0  0
 21 22  1  0  0  0  0
M  END
$$$$
