CHEMBL1095695      none
 OpenBabel11202420153D

 29 31  0  0  0  0  0  0  0  0999 V2000
   35.3447   31.7582   55.9216 C   0  0  0  0  0  0  0  0  0  0  0  0
   34.3249   32.2798   55.6641 C   0  0  0  0  0  0  0  0  0  0  0  0
   33.0462   32.9336   55.3412 C   0  0  0  0  0  0  0  0  0  0  0  0
   33.0800   34.3249   55.7986 N   0  0  0  0  0  0  0  0  0  0  0  0
   32.6654   34.6318   57.0440 C   0  0  0  0  0  0  0  0  0  0  0  0
   32.2603   33.7637   57.7977 O   0  0  0  0  0  0  0  0  0  0  0  0
   32.7111   35.9986   57.4610 C   0  0  0  0  0  0  0  0  0  0  0  0
   33.1805   36.9405   56.5601 C   0  0  0  0  0  0  0  0  0  0  0  0
   33.5770   36.5464   55.3290 N   0  0  0  0  0  0  0  0  0  0  0  0
   33.5291   35.2992   54.9661 C   0  0  0  0  0  0  0  0  0  0  0  0
   33.9917   34.9223   53.5822 C   0  0  0  0  0  0  0  0  0  0  0  0
   33.1404   38.5326   57.2981 S   0  0  0  0  0  0  0  0  0  0  0  0
   32.4914   37.8979   58.8094 C   0  0  0  0  0  0  0  0  0  0  0  0
   32.3232   36.5835   58.7455 C   0  0  0  0  0  0  0  0  0  0  0  0
   31.7595   36.0593   60.0661 C   0  0  0  0  0  0  0  0  0  0  0  0
   32.0308   37.1822   61.0865 C   0  0  0  0  0  0  0  0  0  0  0  0
   32.0652   38.4258   60.1759 C   0  0  0  0  0  0  0  0  0  0  0  0
   36.2568   31.2918   56.1520 H   0  0  0  0  0  0  0  0  0  0  0  0
   32.2326   32.4069   55.8399 H   0  0  0  0  0  0  0  0  0  0  0  0
   32.8878   32.9093   54.2631 H   0  0  0  0  0  0  0  0  0  0  0  0
   33.1488   34.9672   52.8925 H   0  0  0  0  0  0  0  0  0  0  0  0
   34.7656   35.6171   53.2560 H   0  0  0  0  0  0  0  0  0  0  0  0
   34.3953   33.9098   53.5973 H   0  0  0  0  0  0  0  0  0  0  0  0
   32.2746   35.1455   60.3621 H   0  0  0  0  0  0  0  0  0  0  0  0
   30.6883   35.8781   59.9778 H   0  0  0  0  0  0  0  0  0  0  0  0
   32.9898   37.0353   61.5835 H   0  0  0  0  0  0  0  0  0  0  0  0
   31.2223   37.2528   61.8140 H   0  0  0  0  0  0  0  0  0  0  0  0
   32.7924   39.1479   60.5474 H   0  0  0  0  0  0  0  0  0  0  0  0
   31.0766   38.8810   60.1153 H   0  0  0  0  0  0  0  0  0  0  0  0
  1  2  3  0  0  0  0
  1 18  1  0  0  0  0
  2  3  1  0  0  0  0
  3  4  1  0  0  0  0
  3 19  1  0  0  0  0
  3 20  1  0  0  0  0
  4 10  1  0  0  0  0
  4  5  1  0  0  0  0
  5  6  2  0  0  0  0
  5  7  1  0  0  0  0
  7 14  1  0  0  0  0
  7  8  2  0  0  0  0
  8  9  1  0  0  0  0
  8 12  1  0  0  0  0
  9 10  2  0  0  0  0
 10 11  1  0  0  0  0
 11 21  1  0  0  0  0
 11 22  1  0  0  0  0
 11 23  1  0  0  0  0
 12 13  1  0  0  0  0
 13 17  1  0  0  0  0
 13 14  2  0  0  0  0
 14 15  1  0  0  0  0
 15 16  1  0  0  0  0
 15 24  1  0  0  0  0
 15 25  1  0  0  0  0
 16 17  1  0  0  0  0
 16 26  1  0  0  0  0
 16 27  1  0  0  0  0
 17 28  1  0  0  0  0
 17 29  1  0  0  0  0
M  END
$$$$
