CHEMBL468506      none
 OpenBabel11202420153D

 47 50  0  0  0  0  0  0  0  0999 V2000
   28.7465   39.3475   67.1652 C   0  0  0  0  0  0  0  0  0  0  0  0
   29.7591   38.9544   66.1821 N   0  0  0  0  0  0  0  0  0  0  0  0
   29.4146   38.8506   64.8829 C   0  0  0  0  0  0  0  0  0  0  0  0
   28.2720   39.0816   64.5292 O   0  0  0  0  0  0  0  0  0  0  0  0
   30.3921   38.4718   63.9347 C   0  0  0  0  0  0  0  0  0  0  0  0
   31.6881   38.2144   64.3744 C   0  0  0  0  0  0  0  0  0  0  0  0
   32.4438   37.8648   63.2520 C   0  0  0  0  0  0  0  0  0  0  0  0
   31.6210   37.9107   62.1624 C   0  0  0  0  0  0  0  0  0  0  0  0
   32.0191   37.6105   60.7706 C   0  0  0  0  0  0  0  0  0  0  0  0
   32.4947   38.6285   59.9426 C   0  0  0  0  0  0  0  0  0  0  0  0
   32.8641   38.3418   58.6447 C   0  0  0  0  0  0  0  0  0  0  0  0
   32.7640   37.0484   58.1634 C   0  0  0  0  0  0  0  0  0  0  0  0
   33.1688   36.7426   56.7444 C   0  0  0  0  0  0  0  0  0  0  0  0
   33.9725   35.5334   56.7203 O   0  0  0  0  0  0  0  0  0  0  0  0
   33.9068   34.7778   55.6077 C   0  0  0  0  0  0  0  0  0  0  0  0
   33.1973   35.1194   54.6821 O   0  0  0  0  0  0  0  0  0  0  0  0
   34.6280   33.6426   55.5205 N   0  0  0  0  0  0  0  0  0  0  0  0
   34.5602   32.8598   54.3677 C   0  0  0  0  0  0  0  0  0  0  0  0
   35.2294   31.7034   54.1544 C   0  0  0  0  0  0  0  0  0  0  0  0
   34.8655   31.2533   52.8645 C   0  0  0  0  0  0  0  0  0  0  0  0
   34.0003   32.1536   52.3653 C   0  0  0  0  0  0  0  0  0  0  0  0
   33.8182   33.1246   53.2789 O   0  0  0  0  0  0  0  0  0  0  0  0
   32.2884   36.0357   58.9774 C   0  0  0  0  0  0  0  0  0  0  0  0
   31.9206   36.3080   60.2788 C   0  0  0  0  0  0  0  0  0  0  0  0
   30.3708   38.2853   62.5688 N   0  0  0  0  0  0  0  0  0  0  0  0
   31.9790   38.3387   65.7268 N   0  0  0  0  0  0  0  0  0  0  0  0
   33.3357   38.0734   66.2116 C   0  0  0  0  0  0  0  0  0  0  0  0
   31.0139   38.7035   66.5923 C   0  0  0  0  0  0  0  0  0  0  0  0
   31.2844   38.8079   67.7733 O   0  0  0  0  0  0  0  0  0  0  0  0
   29.1966   39.3801   68.1574 H   0  0  0  0  0  0  0  0  0  0  0  0
   28.3563   40.3329   66.9107 H   0  0  0  0  0  0  0  0  0  0  0  0
   27.9330   38.6219   67.1589 H   0  0  0  0  0  0  0  0  0  0  0  0
   33.4918   37.6039   63.2470 H   0  0  0  0  0  0  0  0  0  0  0  0
   32.5730   39.6385   60.3169 H   0  0  0  0  0  0  0  0  0  0  0  0
   33.2326   39.1284   58.0030 H   0  0  0  0  0  0  0  0  0  0  0  0
   33.7507   37.5734   56.3454 H   0  0  0  0  0  0  0  0  0  0  0  0
   32.2766   36.5981   56.1351 H   0  0  0  0  0  0  0  0  0  0  0  0
   35.1944   33.3698   56.2593 H   0  0  0  0  0  0  0  0  0  0  0  0
   35.9100   31.2177   54.8377 H   0  0  0  0  0  0  0  0  0  0  0  0
   35.2158   30.3573   52.3736 H   0  0  0  0  0  0  0  0  0  0  0  0
   33.5272   32.1033   51.3957 H   0  0  0  0  0  0  0  0  0  0  0  0
   32.2085   35.0291   58.5942 H   0  0  0  0  0  0  0  0  0  0  0  0
   31.5535   35.5158   60.9145 H   0  0  0  0  0  0  0  0  0  0  0  0
   29.5982   38.3989   61.9933 H   0  0  0  0  0  0  0  0  0  0  0  0
   33.9167   38.9954   66.1885 H   0  0  0  0  0  0  0  0  0  0  0  0
   33.2895   37.6987   67.2341 H   0  0  0  0  0  0  0  0  0  0  0  0
   33.8107   37.3288   65.5729 H   0  0  0  0  0  0  0  0  0  0  0  0
  1  2  1  0  0  0  0
  1 30  1  0  0  0  0
  1 31  1  0  0  0  0
  1 32  1  0  0  0  0
  2 28  1  0  0  0  0
  2  3  1  0  0  0  0
  3  4  2  0  0  0  0
  3  5  1  0  0  0  0
  5 25  1  0  0  0  0
  5  6  2  0  0  0  0
  6  7  1  0  0  0  0
  6 26  1  0  0  0  0
  7  8  2  0  0  0  0
  7 33  1  0  0  0  0
  8  9  1  0  0  0  0
  8 25  1  0  0  0  0
  9 24  2  0  0  0  0
  9 10  1  0  0  0  0
 10 11  2  0  0  0  0
 10 34  1  0  0  0  0
 11 12  1  0  0  0  0
 11 35  1  0  0  0  0
 12 13  1  0  0  0  0
 12 23  2  0  0  0  0
 13 14  1  0  0  0  0
 13 36  1  0  0  0  0
 13 37  1  0  0  0  0
 14 15  1  0  0  0  0
 15 16  2  0  0  0  0
 15 17  1  0  0  0  0
 17 18  1  0  0  0  0
 17 38  1  0  0  0  0
 18 22  1  0  0  0  0
 18 19  2  0  0  0  0
 19 20  1  0  0  0  0
 19 39  1  0  0  0  0
 20 21  2  0  0  0  0
 20 40  1  0  0  0  0
 21 22  1  0  0  0  0
 21 41  1  0  0  0  0
 23 24  1  0  0  0  0
 23 42  1  0  0  0  0
 24 43  1  0  0  0  0
 25 44  1  0  0  0  0
 26 27  1  0  0  0  0
 26 28  1  0  0  0  0
 27 45  1  0  0  0  0
 27 46  1  0  0  0  0
 27 47  1  0  0  0  0
 28 29  2  0  0  0  0
M  END
$$$$
