CHEMBL256382      none
 OpenBabel11202420153D

 46 49  0  0  0  0  0  0  0  0999 V2000
   34.9802   46.4199   66.5704 C   0  0  0  0  0  0  0  0  0  0  0  0
   33.7143   46.9641   66.9490 O   0  0  0  0  0  0  0  0  0  0  0  0
   32.9080   46.1788   67.7108 C   0  0  0  0  0  0  0  0  0  0  0  0
   31.6650   46.6441   68.1145 C   0  0  0  0  0  0  0  0  0  0  0  0
   30.8475   45.8442   68.8893 C   0  0  0  0  0  0  0  0  0  0  0  0
   31.2675   44.5808   69.2627 C   0  0  0  0  0  0  0  0  0  0  0  0
   30.3739   43.7104   70.1082 C   0  0  0  0  0  0  0  0  0  0  0  0
   29.4958   42.8735   69.2141 C   0  0  0  0  0  0  0  0  0  0  0  0
   28.2893   42.9729   69.2840 O   0  0  0  0  0  0  0  0  0  0  0  0
   30.0514   42.0146   68.3366 N   0  0  0  0  0  0  0  0  0  0  0  0
   29.2409   41.2422   67.5112 C   0  0  0  0  0  0  0  0  0  0  0  0
   29.8059   40.3553   66.5971 C   0  0  0  0  0  0  0  0  0  0  0  0
   28.9516   39.6011   65.7897 C   0  0  0  0  0  0  0  0  0  0  0  0
   29.5003   38.6462   64.8034 C   0  0  0  0  0  0  0  0  0  0  0  0
   30.2544   37.6217   65.0821 N   0  0  0  0  0  0  0  0  0  0  0  0
   30.6503   36.8802   64.0763 C   0  0  0  0  0  0  0  0  0  0  0  0
   30.2286   37.2665   62.8650 C   0  0  0  0  0  0  0  0  0  0  0  0
   29.2325   38.7073   63.0632 S   0  0  0  0  0  0  0  0  0  0  0  0
   27.6339   39.7555   65.9210 N   0  0  0  0  0  0  0  0  0  0  0  0
   27.1366   40.6092   66.8022 C   0  0  0  0  0  0  0  0  0  0  0  0
   25.6637   40.7518   66.9172 C   0  0  0  0  0  0  0  0  0  0  0  0
   25.0694   41.9887   66.6817 C   0  0  0  0  0  0  0  0  0  0  0  0
   23.6938   42.1067   66.7933 C   0  0  0  0  0  0  0  0  0  0  0  0
   22.9589   40.9820   67.1368 C   0  0  0  0  0  0  0  0  0  0  0  0
   23.6161   39.7851   67.3623 C   0  0  0  0  0  0  0  0  0  0  0  0
   24.9245   39.6997   67.2438 N   0  0  0  0  0  0  0  0  0  0  0  0
   27.9180   41.3442   67.5806 N   0  0  0  0  0  0  0  0  0  0  0  0
   32.5081   44.1169   68.8662 C   0  0  0  0  0  0  0  0  0  0  0  0
   33.3268   44.9106   68.0863 C   0  0  0  0  0  0  0  0  0  0  0  0
   35.5580   46.1877   67.4651 H   0  0  0  0  0  0  0  0  0  0  0  0
   34.8259   45.5094   65.9913 H   0  0  0  0  0  0  0  0  0  0  0  0
   35.5224   47.1474   65.9664 H   0  0  0  0  0  0  0  0  0  0  0  0
   31.3369   47.6311   67.8237 H   0  0  0  0  0  0  0  0  0  0  0  0
   29.8799   46.2059   69.2039 H   0  0  0  0  0  0  0  0  0  0  0  0
   29.7507   44.3391   70.7442 H   0  0  0  0  0  0  0  0  0  0  0  0
   30.9860   43.0576   70.7306 H   0  0  0  0  0  0  0  0  0  0  0  0
   31.0166   41.9350   68.2807 H   0  0  0  0  0  0  0  0  0  0  0  0
   30.8778   40.2538   66.5148 H   0  0  0  0  0  0  0  0  0  0  0  0
   31.2770   36.0118   64.2156 H   0  0  0  0  0  0  0  0  0  0  0  0
   30.4559   36.7773   61.9293 H   0  0  0  0  0  0  0  0  0  0  0  0
   25.6728   42.8443   66.4162 H   0  0  0  0  0  0  0  0  0  0  0  0
   23.2046   43.0532   66.6163 H   0  0  0  0  0  0  0  0  0  0  0  0
   21.8847   41.0407   67.2319 H   0  0  0  0  0  0  0  0  0  0  0  0
   23.0476   38.9082   67.6349 H   0  0  0  0  0  0  0  0  0  0  0  0
   32.8359   43.1316   69.1630 H   0  0  0  0  0  0  0  0  0  0  0  0
   34.2943   44.5462   67.7734 H   0  0  0  0  0  0  0  0  0  0  0  0
  1  2  1  0  0  0  0
  1 30  1  0  0  0  0
  1 31  1  0  0  0  0
  1 32  1  0  0  0  0
  2  3  1  0  0  0  0
  3 29  2  0  0  0  0
  3  4  1  0  0  0  0
  4  5  2  0  0  0  0
  4 33  1  0  0  0  0
  5  6  1  0  0  0  0
  5 34  1  0  0  0  0
  6  7  1  0  0  0  0
  6 28  2  0  0  0  0
  7  8  1  0  0  0  0
  7 35  1  0  0  0  0
  7 36  1  0  0  0  0
  8  9  2  0  0  0  0
  8 10  1  0  0  0  0
 10 11  1  0  0  0  0
 10 37  1  0  0  0  0
 11 27  2  0  0  0  0
 11 12  1  0  0  0  0
 12 13  2  0  0  0  0
 12 38  1  0  0  0  0
 13 14  1  0  0  0  0
 13 19  1  0  0  0  0
 14 18  1  0  0  0  0
 14 15  2  0  0  0  0
 15 16  1  0  0  0  0
 16 17  2  0  0  0  0
 16 39  1  0  0  0  0
 17 18  1  0  0  0  0
 17 40  1  0  0  0  0
 19 20  2  0  0  0  0
 20 21  1  0  0  0  0
 20 27  1  0  0  0  0
 21 26  2  0  0  0  0
 21 22  1  0  0  0  0
 22 23  2  0  0  0  0
 22 41  1  0  0  0  0
 23 24  1  0  0  0  0
 23 42  1  0  0  0  0
 24 25  2  0  0  0  0
 24 43  1  0  0  0  0
 25 26  1  0  0  0  0
 25 44  1  0  0  0  0
 28 29  1  0  0  0  0
 28 45  1  0  0  0  0
 29 46  1  0  0  0  0
M  END
$$$$
