CHEMBL106265      none
 OpenBabel11202420153D

 34 36  0  0  0  0  0  0  0  0999 V2000
   33.8180   39.1660   56.1455 C   0  0  0  0  0  0  0  0  0  0  0  0
   33.3632   38.2670   57.2092 N   0  0  0  0  0  0  0  0  0  0  0  0
   32.8464   38.7859   58.3440 C   0  0  0  0  0  0  0  0  0  0  0  0
   32.7595   39.9909   58.4942 O   0  0  0  0  0  0  0  0  0  0  0  0
   32.3934   37.8667   59.3892 C   0  0  0  0  0  0  0  0  0  0  0  0
   32.5168   36.5007   59.1644 C   0  0  0  0  0  0  0  0  0  0  0  0
   32.0307   35.8838   60.2735 N   0  0  0  0  0  0  0  0  0  0  0  0
   31.6260   36.8557   61.1418 C   0  0  0  0  0  0  0  0  0  0  0  0
   31.0226   36.6108   62.5009 C   0  0  0  0  0  0  0  0  0  0  0  0
   30.7591   37.9543   63.2118 C   0  0  0  0  0  0  0  0  0  0  0  0
   31.0890   37.6676   64.6986 C   0  0  0  0  0  0  0  0  0  0  0  0
   32.3170   36.7286   64.6020 C   0  0  0  0  0  0  0  0  0  0  0  0
   32.0125   35.8316   63.3844 C   0  0  0  0  0  0  0  0  0  0  0  0
   31.8418   38.0267   60.6160 N   0  0  0  0  0  0  0  0  0  0  0  0
   33.0559   36.0625   57.9767 N   0  0  0  0  0  0  0  0  0  0  0  0
   33.1899   34.6247   57.7298 C   0  0  0  0  0  0  0  0  0  0  0  0
   33.4611   36.9380   57.0399 C   0  0  0  0  0  0  0  0  0  0  0  0
   33.9326   36.5116   56.0033 O   0  0  0  0  0  0  0  0  0  0  0  0
   33.6595   40.2002   56.4513 H   0  0  0  0  0  0  0  0  0  0  0  0
   34.8791   39.0008   55.9590 H   0  0  0  0  0  0  0  0  0  0  0  0
   33.2536   38.9659   55.2347 H   0  0  0  0  0  0  0  0  0  0  0  0
   31.9808   34.9264   60.4213 H   0  0  0  0  0  0  0  0  0  0  0  0
   30.0919   36.0524   62.4007 H   0  0  0  0  0  0  0  0  0  0  0  0
   31.4161   38.7297   62.8180 H   0  0  0  0  0  0  0  0  0  0  0  0
   29.7146   38.2458   63.1015 H   0  0  0  0  0  0  0  0  0  0  0  0
   30.2555   37.1643   65.1884 H   0  0  0  0  0  0  0  0  0  0  0  0
   31.3471   38.5884   65.2216 H   0  0  0  0  0  0  0  0  0  0  0  0
   32.4088   36.1264   65.5059 H   0  0  0  0  0  0  0  0  0  0  0  0
   33.2274   37.3039   64.4337 H   0  0  0  0  0  0  0  0  0  0  0  0
   31.5618   34.8953   63.7139 H   0  0  0  0  0  0  0  0  0  0  0  0
   32.9293   35.6304   62.8302 H   0  0  0  0  0  0  0  0  0  0  0  0
   32.2853   34.2529   57.2483 H   0  0  0  0  0  0  0  0  0  0  0  0
   34.0468   34.4458   57.0803 H   0  0  0  0  0  0  0  0  0  0  0  0
   33.3371   34.1055   58.6768 H   0  0  0  0  0  0  0  0  0  0  0  0
  1  2  1  0  0  0  0
  1 19  1  0  0  0  0
  1 20  1  0  0  0  0
  1 21  1  0  0  0  0
  2 17  1  0  0  0  0
  2  3  1  0  0  0  0
  3  4  2  0  0  0  0
  3  5  1  0  0  0  0
  5 14  1  0  0  0  0
  5  6  2  0  0  0  0
  6  7  1  0  0  0  0
  6 15  1  0  0  0  0
  7  8  1  0  0  0  0
  7 22  1  0  0  0  0
  8  9  1  0  0  0  0
  8 14  2  0  0  0  0
  9 13  1  0  0  0  0
  9 10  1  0  0  0  0
  9 23  1  0  0  0  0
 10 11  1  0  0  0  0
 10 24  1  0  0  0  0
 10 25  1  0  0  0  0
 11 12  1  0  0  0  0
 11 26  1  0  0  0  0
 11 27  1  0  0  0  0
 12 13  1  0  0  0  0
 12 28  1  0  0  0  0
 12 29  1  0  0  0  0
 13 30  1  0  0  0  0
 13 31  1  0  0  0  0
 15 16  1  0  0  0  0
 15 17  1  0  0  0  0
 16 32  1  0  0  0  0
 16 33  1  0  0  0  0
 16 34  1  0  0  0  0
 17 18  2  0  0  0  0
M  END
$$$$
