CHEMBL392136      none
 OpenBabel11202420153D

 35 38  0  0  0  0  0  0  0  0999 V2000
   30.1926   34.6627   65.4810 C   0  0  0  0  0  0  0  0  0  0  0  0
   30.6940   35.2862   64.2040 C   0  0  0  0  0  0  0  0  0  0  0  0
   30.9090   34.4956   63.0893 C   0  0  0  0  0  0  0  0  0  0  0  0
   31.3679   35.0609   61.9173 C   0  0  0  0  0  0  0  0  0  0  0  0
   31.6147   36.4322   61.8576 C   0  0  0  0  0  0  0  0  0  0  0  0
   32.1080   37.0452   60.6022 C   0  0  0  0  0  0  0  0  0  0  0  0
   32.3759   38.3146   60.4180 N   0  0  0  0  0  0  0  0  0  0  0  0
   32.8207   38.5004   59.1041 N   0  0  0  0  0  0  0  0  0  0  0  0
   33.2160   39.6189   58.4119 C   0  0  0  0  0  0  0  0  0  0  0  0
   33.2192   40.8369   59.0509 N   0  0  0  0  0  0  0  0  0  0  0  0
   33.5947   39.5534   57.1618 N   0  0  0  0  0  0  0  0  0  0  0  0
   33.6112   38.3713   56.4804 C   0  0  0  0  0  0  0  0  0  0  0  0
   34.0180   38.3229   55.1471 C   0  0  0  0  0  0  0  0  0  0  0  0
   34.0267   37.1175   54.4755 C   0  0  0  0  0  0  0  0  0  0  0  0
   33.6337   35.9537   55.1164 C   0  0  0  0  0  0  0  0  0  0  0  0
   33.6509   34.4461   54.2559 Cl  0  0  0  0  0  0  0  0  0  0  0  0
   33.2281   35.9867   56.4391 C   0  0  0  0  0  0  0  0  0  0  0  0
   33.2141   37.1880   57.1256 C   0  0  0  0  0  0  0  0  0  0  0  0
   32.8108   37.2542   58.4573 N   0  0  0  0  0  0  0  0  0  0  0  0
   32.3827   36.3359   59.3422 C   0  0  0  0  0  0  0  0  0  0  0  0
   32.2475   35.1433   59.1391 O   0  0  0  0  0  0  0  0  0  0  0  0
   31.4006   37.2232   62.9860 C   0  0  0  0  0  0  0  0  0  0  0  0
   30.9369   36.6472   64.1510 C   0  0  0  0  0  0  0  0  0  0  0  0
   31.0409   34.3507   66.0903 H   0  0  0  0  0  0  0  0  0  0  0  0
   29.5978   35.3911   66.0320 H   0  0  0  0  0  0  0  0  0  0  0  0
   29.5767   33.7950   65.2443 H   0  0  0  0  0  0  0  0  0  0  0  0
   30.7176   33.4338   63.1367 H   0  0  0  0  0  0  0  0  0  0  0  0
   31.5361   34.4425   61.0479 H   0  0  0  0  0  0  0  0  0  0  0  0
   33.5000   41.6338   58.5745 H   0  0  0  0  0  0  0  0  0  0  0  0
   32.9369   40.8996   59.9768 H   0  0  0  0  0  0  0  0  0  0  0  0
   34.3250   39.2266   54.6416 H   0  0  0  0  0  0  0  0  0  0  0  0
   34.3419   37.0811   53.4432 H   0  0  0  0  0  0  0  0  0  0  0  0
   32.9227   35.0768   56.9345 H   0  0  0  0  0  0  0  0  0  0  0  0
   31.5941   38.2851   62.9471 H   0  0  0  0  0  0  0  0  0  0  0  0
   30.7675   37.2593   65.0245 H   0  0  0  0  0  0  0  0  0  0  0  0
  1  2  1  0  0  0  0
  1 24  1  0  0  0  0
  1 25  1  0  0  0  0
  1 26  1  0  0  0  0
  2 23  2  0  0  0  0
  2  3  1  0  0  0  0
  3  4  2  0  0  0  0
  3 27  1  0  0  0  0
  4  5  1  0  0  0  0
  4 28  1  0  0  0  0
  5  6  1  0  0  0  0
  5 22  2  0  0  0  0
  6 20  1  0  0  0  0
  6  7  2  0  0  0  0
  7  8  1  0  0  0  0
  8 19  1  0  0  0  0
  8  9  1  0  0  0  0
  9 10  1  0  0  0  0
  9 11  2  0  0  0  0
 10 29  1  0  0  0  0
 10 30  1  0  0  0  0
 11 12  1  0  0  0  0
 12 18  2  0  0  0  0
 12 13  1  0  0  0  0
 13 14  2  0  0  0  0
 13 31  1  0  0  0  0
 14 15  1  0  0  0  0
 14 32  1  0  0  0  0
 15 16  1  0  0  0  0
 15 17  2  0  0  0  0
 17 18  1  0  0  0  0
 17 33  1  0  0  0  0
 18 19  1  0  0  0  0
 19 20  1  0  0  0  0
 20 21  2  0  0  0  0
 22 23  1  0  0  0  0
 22 34  1  0  0  0  0
 23 35  1  0  0  0  0
M  END
$$$$
