CHEMBL1095999      none
 OpenBabel11202420153D

 29 32  0  0  0  0  0  0  0  0999 V2000
   33.2684   40.8312   59.0818 N   0  0  0  0  0  0  0  0  0  0  0  0
   33.1952   39.5750   58.5166 C   0  0  0  0  0  0  0  0  0  0  0  0
   33.5715   39.4201   57.2584 N   0  0  0  0  0  0  0  0  0  0  0  0
   33.5177   38.2212   56.6695 C   0  0  0  0  0  0  0  0  0  0  0  0
   33.9374   38.0508   55.2692 C   0  0  0  0  0  0  0  0  0  0  0  0
   34.8838   38.7881   54.6215 C   0  0  0  0  0  0  0  0  0  0  0  0
   34.9632   38.2835   53.3118 C   0  0  0  0  0  0  0  0  0  0  0  0
   34.0660   37.2793   53.2186 C   0  0  0  0  0  0  0  0  0  0  0  0
   33.4491   37.1420   54.4014 O   0  0  0  0  0  0  0  0  0  0  0  0
   33.0509   37.1257   57.4196 C   0  0  0  0  0  0  0  0  0  0  0  0
   32.8596   35.7005   57.1135 C   0  0  0  0  0  0  0  0  0  0  0  0
   33.0911   35.1526   56.0538 O   0  0  0  0  0  0  0  0  0  0  0  0
   32.3300   35.0561   58.3422 C   0  0  0  0  0  0  0  0  0  0  0  0
   31.9702   33.7469   58.6286 C   0  0  0  0  0  0  0  0  0  0  0  0
   31.4953   33.4204   59.8898 C   0  0  0  0  0  0  0  0  0  0  0  0
   31.3789   34.3934   60.8620 C   0  0  0  0  0  0  0  0  0  0  0  0
   31.7348   35.7057   60.5879 C   0  0  0  0  0  0  0  0  0  0  0  0
   32.2116   36.0478   59.3308 C   0  0  0  0  0  0  0  0  0  0  0  0
   32.6612   37.3413   58.7568 C   0  0  0  0  0  0  0  0  0  0  0  0
   32.7483   38.5646   59.2571 N   0  0  0  0  0  0  0  0  0  0  0  0
   33.5914   41.5808   58.5578 H   0  0  0  0  0  0  0  0  0  0  0  0
   32.9969   40.9648   60.0034 H   0  0  0  0  0  0  0  0  0  0  0  0
   35.4619   39.6011   55.0352 H   0  0  0  0  0  0  0  0  0  0  0  0
   35.6164   38.6354   52.5269 H   0  0  0  0  0  0  0  0  0  0  0  0
   33.8759   36.6850   52.3370 H   0  0  0  0  0  0  0  0  0  0  0  0
   32.0603   32.9831   57.8704 H   0  0  0  0  0  0  0  0  0  0  0  0
   31.2197   32.4004   60.1137 H   0  0  0  0  0  0  0  0  0  0  0  0
   31.0081   34.1313   61.8419 H   0  0  0  0  0  0  0  0  0  0  0  0
   31.6409   36.4615   61.3536 H   0  0  0  0  0  0  0  0  0  0  0  0
  1  2  1  0  0  0  0
  1 21  1  0  0  0  0
  1 22  1  0  0  0  0
  2 20  2  0  0  0  0
  2  3  1  0  0  0  0
  3  4  2  0  0  0  0
  4  5  1  0  0  0  0
  4 10  1  0  0  0  0
  5  9  1  0  0  0  0
  5  6  2  0  0  0  0
  6  7  1  0  0  0  0
  6 23  1  0  0  0  0
  7  8  2  0  0  0  0
  7 24  1  0  0  0  0
  8  9  1  0  0  0  0
  8 25  1  0  0  0  0
 10 19  2  0  0  0  0
 10 11  1  0  0  0  0
 11 12  2  0  0  0  0
 11 13  1  0  0  0  0
 13 18  2  0  0  0  0
 13 14  1  0  0  0  0
 14 15  2  0  0  0  0
 14 26  1  0  0  0  0
 15 16  1  0  0  0  0
 15 27  1  0  0  0  0
 16 17  2  0  0  0  0
 16 28  1  0  0  0  0
 17 18  1  0  0  0  0
 17 29  1  0  0  0  0
 18 19  1  0  0  0  0
 19 20  1  0  0  0  0
M  END
$$$$
