CHEMBL508786      none
 OpenBabel11202420153D

 46 48  0  0  1  0  0  0  0  0999 V2000
   30.7704   35.4618   67.2987 C   0  0  0  0  0  0  0  0  0  0  0  0
   31.0603   35.8792   65.9630 O   0  0  0  0  0  0  0  0  0  0  0  0
   30.7633   37.2532   65.7062 C   0  0  0  0  0  0  0  0  0  0  0  0
   31.1111   37.5872   64.2542 C   0  0  1  0  0  0  0  0  0  0  0  0
   32.1715   37.4099   64.0743 H   0  0  0  0  0  0  0  0  0  0  0  0
   30.2645   36.7202   63.2987 C   0  0  0  0  0  0  0  0  0  0  0  0
   29.9289   37.6994   62.1431 C   0  0  0  0  0  0  0  0  0  0  0  0
   29.7592   39.0370   62.9057 C   0  0  0  0  0  0  0  0  0  0  0  0
   30.7833   38.9966   63.9713 N   0  0  0  0  0  0  0  0  0  0  0  0
   30.3367   39.6418   65.1142 C   0  0  0  0  0  0  0  0  0  0  0  0
   31.2385   40.2857   65.9591 C   0  0  0  0  0  0  0  0  0  0  0  0
   30.7463   40.9210   67.0952 C   0  0  0  0  0  0  0  0  0  0  0  0
   31.6110   41.5760   67.9661 N   0  0  0  0  0  0  0  0  0  0  0  0
   31.1258   42.1839   69.0669 C   0  0  0  0  0  0  0  0  0  0  0  0
   32.0618   42.8987   70.0072 C   0  0  0  0  0  0  0  0  0  0  0  0
   29.9357   42.1599   69.2980 O   0  0  0  0  0  0  0  0  0  0  0  0
   29.4405   40.8895   67.3405 N   0  0  0  0  0  0  0  0  0  0  0  0
   28.6075   40.2711   66.5110 C   0  0  0  0  0  0  0  0  0  0  0  0
   27.1637   40.2632   66.8149 C   0  0  0  0  0  0  0  0  0  0  0  0
   26.2577   41.1960   66.4138 C   0  0  0  0  0  0  0  0  0  0  0  0
   25.0088   40.7932   66.9224 C   0  0  0  0  0  0  0  0  0  0  0  0
   25.2116   39.6508   67.6100 C   0  0  0  0  0  0  0  0  0  0  0  0
   24.1516   38.8615   68.3341 C   0  0  0  0  0  0  0  0  0  0  0  0
   26.5135   39.3340   67.5430 O   0  0  0  0  0  0  0  0  0  0  0  0
   29.0425   39.6546   65.4180 N   0  0  0  0  0  0  0  0  0  0  0  0
   31.2944   36.1080   68.0031 H   0  0  0  0  0  0  0  0  0  0  0  0
   29.6967   35.5274   67.4748 H   0  0  0  0  0  0  0  0  0  0  0  0
   31.0991   34.4318   67.4369 H   0  0  0  0  0  0  0  0  0  0  0  0
   31.3503   37.8829   66.3745 H   0  0  0  0  0  0  0  0  0  0  0  0
   29.7019   37.4334   65.8762 H   0  0  0  0  0  0  0  0  0  0  0  0
   30.8442   35.8739   62.9305 H   0  0  0  0  0  0  0  0  0  0  0  0
   29.3540   36.3798   63.7919 H   0  0  0  0  0  0  0  0  0  0  0  0
   30.7510   37.7582   61.4299 H   0  0  0  0  0  0  0  0  0  0  0  0
   29.0021   37.4134   61.6456 H   0  0  0  0  0  0  0  0  0  0  0  0
   28.7617   39.1023   63.3403 H   0  0  0  0  0  0  0  0  0  0  0  0
   29.9391   39.8799   62.2383 H   0  0  0  0  0  0  0  0  0  0  0  0
   32.2954   40.2918   65.7371 H   0  0  0  0  0  0  0  0  0  0  0  0
   32.5631   41.5954   67.7812 H   0  0  0  0  0  0  0  0  0  0  0  0
   31.4912   43.3289   70.8303 H   0  0  0  0  0  0  0  0  0  0  0  0
   32.7912   42.1911   70.4015 H   0  0  0  0  0  0  0  0  0  0  0  0
   32.5799   43.6932   69.4700 H   0  0  0  0  0  0  0  0  0  0  0  0
   26.4581   42.0744   65.8181 H   0  0  0  0  0  0  0  0  0  0  0  0
   24.0668   41.3048   66.7911 H   0  0  0  0  0  0  0  0  0  0  0  0
   24.6048   37.9860   68.7992 H   0  0  0  0  0  0  0  0  0  0  0  0
   23.6950   39.4856   69.1022 H   0  0  0  0  0  0  0  0  0  0  0  0
   23.3885   38.5418   67.6245 H   0  0  0  0  0  0  0  0  0  0  0  0
  1  2  1  0  0  0  0
  1 26  1  0  0  0  0
  1 27  1  0  0  0  0
  1 28  1  0  0  0  0
  2  3  1  0  0  0  0
  3  4  1  0  0  0  0
  3 29  1  0  0  0  0
  3 30  1  0  0  0  0
  4  5  1  6  0  0  0
  4  9  1  0  0  0  0
  4  6  1  0  0  0  0
  6  7  1  0  0  0  0
  6 31  1  0  0  0  0
  6 32  1  0  0  0  0
  7  8  1  0  0  0  0
  7 33  1  0  0  0  0
  7 34  1  0  0  0  0
  8  9  1  0  0  0  0
  8 35  1  0  0  0  0
  8 36  1  0  0  0  0
  9 10  1  0  0  0  0
 10 25  2  0  0  0  0
 10 11  1  0  0  0  0
 11 12  2  0  0  0  0
 11 37  1  0  0  0  0
 12 13  1  0  0  0  0
 12 17  1  0  0  0  0
 13 14  1  0  0  0  0
 13 38  1  0  0  0  0
 14 15  1  0  0  0  0
 14 16  2  0  0  0  0
 15 39  1  0  0  0  0
 15 40  1  0  0  0  0
 15 41  1  0  0  0  0
 17 18  2  0  0  0  0
 18 19  1  0  0  0  0
 18 25  1  0  0  0  0
 19 24  1  0  0  0  0
 19 20  2  0  0  0  0
 20 21  1  0  0  0  0
 20 42  1  0  0  0  0
 21 22  2  0  0  0  0
 21 43  1  0  0  0  0
 22 23  1  0  0  0  0
 22 24  1  0  0  0  0
 23 44  1  0  0  0  0
 23 45  1  0  0  0  0
 23 46  1  0  0  0  0
M  END
$$$$
