CHEMBL409915      none
 OpenBabel11202420153D

 36 39  0  0  0  0  0  0  0  0999 V2000
   33.1751   40.7698   58.8096 N   0  0  0  0  0  0  0  0  0  0  0  0
   33.3998   39.8066   57.8396 C   0  0  0  0  0  0  0  0  0  0  0  0
   33.8580   40.1865   56.6563 N   0  0  0  0  0  0  0  0  0  0  0  0
   34.0896   39.2965   55.6900 C   0  0  0  0  0  0  0  0  0  0  0  0
   34.5997   39.7259   54.3765 C   0  0  0  0  0  0  0  0  0  0  0  0
   34.8779   38.9108   53.3210 C   0  0  0  0  0  0  0  0  0  0  0  0
   35.3342   39.7390   52.2792 C   0  0  0  0  0  0  0  0  0  0  0  0
   35.3219   41.0049   52.7453 C   0  0  0  0  0  0  0  0  0  0  0  0
   34.8781   40.9931   54.0115 O   0  0  0  0  0  0  0  0  0  0  0  0
   33.8354   37.9358   55.9552 C   0  0  0  0  0  0  0  0  0  0  0  0
   33.9490   36.7915   55.2392 N   0  0  0  0  0  0  0  0  0  0  0  0
   33.5747   35.7811   55.9669 C   0  0  0  0  0  0  0  0  0  0  0  0
   33.1930   36.2167   57.2092 N   0  0  0  0  0  0  0  0  0  0  0  0
   32.7472   35.4495   58.2235 C   0  0  0  0  0  0  0  0  0  0  0  0
   32.6536   34.2465   58.0797 O   0  0  0  0  0  0  0  0  0  0  0  0
   32.4050   36.0163   59.3975 N   0  0  0  0  0  0  0  0  0  0  0  0
   31.9204   35.1824   60.4999 C   0  0  0  0  0  0  0  0  0  0  0  0
   31.6091   36.0535   61.6896 C   0  0  0  0  0  0  0  0  0  0  0  0
   31.1529   35.6164   62.8643 C   0  0  0  0  0  0  0  0  0  0  0  0
   30.9395   36.6035   63.8110 C   0  0  0  0  0  0  0  0  0  0  0  0
   31.2224   37.8422   63.4050 C   0  0  0  0  0  0  0  0  0  0  0  0
   31.7992   37.8012   61.7439 S   0  0  0  0  0  0  0  0  0  0  0  0
   33.3498   37.5861   57.2272 C   0  0  0  0  0  0  0  0  0  0  0  0
   33.1492   38.5384   58.1283 N   0  0  0  0  0  0  0  0  0  0  0  0
   33.3529   41.7035   58.6163 H   0  0  0  0  0  0  0  0  0  0  0  0
   32.8396   40.5104   59.6820 H   0  0  0  0  0  0  0  0  0  0  0  0
   34.7674   37.8370   53.2893 H   0  0  0  0  0  0  0  0  0  0  0  0
   35.6407   39.4209   51.2936 H   0  0  0  0  0  0  0  0  0  0  0  0
   35.6203   41.8825   52.1911 H   0  0  0  0  0  0  0  0  0  0  0  0
   33.5697   34.7510   55.6422 H   0  0  0  0  0  0  0  0  0  0  0  0
   32.4798   36.9766   59.5123 H   0  0  0  0  0  0  0  0  0  0  0  0
   31.0177   34.6568   60.1883 H   0  0  0  0  0  0  0  0  0  0  0  0
   32.6876   34.4571   60.7714 H   0  0  0  0  0  0  0  0  0  0  0  0
   30.9639   34.5716   63.0618 H   0  0  0  0  0  0  0  0  0  0  0  0
   30.5719   36.3870   64.8033 H   0  0  0  0  0  0  0  0  0  0  0  0
   31.1181   38.7334   64.0060 H   0  0  0  0  0  0  0  0  0  0  0  0
  1  2  1  0  0  0  0
  1 25  1  0  0  0  0
  1 26  1  0  0  0  0
  2 24  2  0  0  0  0
  2  3  1  0  0  0  0
  3  4  2  0  0  0  0
  4  5  1  0  0  0  0
  4 10  1  0  0  0  0
  5  9  1  0  0  0  0
  5  6  2  0  0  0  0
  6  7  1  0  0  0  0
  6 27  1  0  0  0  0
  7  8  2  0  0  0  0
  7 28  1  0  0  0  0
  8  9  1  0  0  0  0
  8 29  1  0  0  0  0
 10 23  2  0  0  0  0
 10 11  1  0  0  0  0
 11 12  2  0  0  0  0
 12 13  1  0  0  0  0
 12 30  1  0  0  0  0
 13 14  1  0  0  0  0
 13 23  1  0  0  0  0
 14 15  2  0  0  0  0
 14 16  1  0  0  0  0
 16 17  1  0  0  0  0
 16 31  1  0  0  0  0
 17 18  1  0  0  0  0
 17 32  1  0  0  0  0
 17 33  1  0  0  0  0
 18 22  1  0  0  0  0
 18 19  2  0  0  0  0
 19 20  1  0  0  0  0
 19 34  1  0  0  0  0
 20 21  2  0  0  0  0
 20 35  1  0  0  0  0
 21 22  1  0  0  0  0
 21 36  1  0  0  0  0
 23 24  1  0  0  0  0
M  END
$$$$
