CHEMBL85549      none
 OpenBabel11202420153D

 48 51  0  0  1  0  0  0  0  0999 V2000
   30.6841   39.2208   64.4785 O   0  0  0  0  0  0  0  0  0  0  0  0
   29.4212   38.8574   63.9170 C   0  0  0  0  0  0  0  0  0  0  0  0
   29.4708   37.4012   63.4500 C   0  0  1  0  0  0  0  0  0  0  0  0
   28.5103   37.1166   63.0202 H   0  0  0  0  0  0  0  0  0  0  0  0
   30.5069   37.2389   62.4742 O   0  0  0  0  0  0  0  0  0  0  0  0
   31.4982   36.3197   62.9596 C   0  0  2  0  0  0  0  0  0  0  0  0
   32.0071   35.4941   61.8615 N   0  0  0  0  0  0  0  0  0  0  0  0
   32.4726   34.2169   61.9615 C   0  0  0  0  0  0  0  0  0  0  0  0
   32.8449   33.7863   60.7911 N   0  0  0  0  0  0  0  0  0  0  0  0
   32.6425   34.7573   59.8683 C   0  0  0  0  0  0  0  0  0  0  0  0
   32.8504   34.8624   58.4826 C   0  0  0  0  0  0  0  0  0  0  0  0
   33.3793   33.8048   57.7638 N   0  0  0  0  0  0  0  0  0  0  0  0
   33.5726   33.9266   56.3167 C   0  0  0  0  0  0  0  0  0  0  0  0
   32.3105   33.4543   55.5920 C   0  0  0  0  0  0  0  0  0  0  0  0
   32.5124   33.5815   54.0808 C   0  0  0  0  0  0  0  0  0  0  0  0
   33.7006   32.7187   53.6506 C   0  0  0  0  0  0  0  0  0  0  0  0
   34.9626   33.1910   54.3752 C   0  0  0  0  0  0  0  0  0  0  0  0
   34.7607   33.0639   55.8865 C   0  0  0  0  0  0  0  0  0  0  0  0
   32.5126   35.9957   57.8758 N   0  0  0  0  0  0  0  0  0  0  0  0
   32.0054   37.0094   58.5533 C   0  0  0  0  0  0  0  0  0  0  0  0
   31.7979   36.9578   59.8522 N   0  0  0  0  0  0  0  0  0  0  0  0
   32.0970   35.8627   60.5430 C   0  0  0  0  0  0  0  0  0  0  0  0
   30.7589   35.4380   63.9973 C   0  0  2  0  0  0  0  0  0  0  0  0
   31.4527   35.0320   64.7334 H   0  0  0  0  0  0  0  0  0  0  0  0
   30.0243   34.3936   63.3557 O   0  0  0  0  0  0  0  0  0  0  0  0
   29.8046   36.4797   64.6427 C   0  0  2  0  0  0  0  0  0  0  0  0
   30.3126   37.0347   65.4314 H   0  0  0  0  0  0  0  0  0  0  0  0
   28.6247   35.8474   65.1427 O   0  0  0  0  0  0  0  0  0  0  0  0
   31.4252   39.1439   63.8621 H   0  0  0  0  0  0  0  0  0  0  0  0
   29.2017   39.5041   63.0675 H   0  0  0  0  0  0  0  0  0  0  0  0
   28.6422   38.9709   64.6709 H   0  0  0  0  0  0  0  0  0  0  0  0
   32.3149   36.8612   63.4368 H   0  0  0  0  0  0  0  0  0  0  0  0
   32.5251   33.6463   62.8770 H   0  0  0  0  0  0  0  0  0  0  0  0
   33.6221   32.9828   58.2180 H   0  0  0  0  0  0  0  0  0  0  0  0
   33.7691   34.9682   56.0627 H   0  0  0  0  0  0  0  0  0  0  0  0
   32.1140   32.4127   55.8460 H   0  0  0  0  0  0  0  0  0  0  0  0
   31.4642   34.0689   55.8985 H   0  0  0  0  0  0  0  0  0  0  0  0
   32.7090   34.6231   53.8268 H   0  0  0  0  0  0  0  0  0  0  0  0
   31.6134   33.2451   53.5644 H   0  0  0  0  0  0  0  0  0  0  0  0
   33.8444   32.8093   52.5739 H   0  0  0  0  0  0  0  0  0  0  0  0
   33.5041   31.6771   53.9044 H   0  0  0  0  0  0  0  0  0  0  0  0
   35.1591   34.2326   54.1213 H   0  0  0  0  0  0  0  0  0  0  0  0
   35.8090   32.5764   54.0688 H   0  0  0  0  0  0  0  0  0  0  0  0
   35.6597   33.4002   56.4028 H   0  0  0  0  0  0  0  0  0  0  0  0
   34.5642   32.0222   56.1404 H   0  0  0  0  0  0  0  0  0  0  0  0
   31.7510   37.9143   58.0218 H   0  0  0  0  0  0  0  0  0  0  0  0
   30.5713   33.7929   62.8314 H   0  0  0  0  0  0  0  0  0  0  0  0
   28.7851   35.2410   65.8786 H   0  0  0  0  0  0  0  0  0  0  0  0
  1  2  1  0  0  0  0
  1 29  1  0  0  0  0
  2  3  1  0  0  0  0
  2 30  1  0  0  0  0
  2 31  1  0  0  0  0
  3  4  1  6  0  0  0
  3 26  1  0  0  0  0
  3  5  1  0  0  0  0
  5  6  1  0  0  0  0
  6  7  1  0  0  0  0
  6 23  1  0  0  0  0
  6 32  1  1  0  0  0
  7 22  1  0  0  0  0
  7  8  1  0  0  0  0
  8  9  2  0  0  0  0
  8 33  1  0  0  0  0
  9 10  1  0  0  0  0
 10 22  2  0  0  0  0
 10 11  1  0  0  0  0
 11 12  1  0  0  0  0
 11 19  2  0  0  0  0
 12 13  1  0  0  0  0
 12 34  1  0  0  0  0
 13 18  1  0  0  0  0
 13 14  1  0  0  0  0
 13 35  1  0  0  0  0
 14 15  1  0  0  0  0
 14 36  1  0  0  0  0
 14 37  1  0  0  0  0
 15 16  1  0  0  0  0
 15 38  1  0  0  0  0
 15 39  1  0  0  0  0
 16 17  1  0  0  0  0
 16 40  1  0  0  0  0
 16 41  1  0  0  0  0
 17 18  1  0  0  0  0
 17 42  1  0  0  0  0
 17 43  1  0  0  0  0
 18 44  1  0  0  0  0
 18 45  1  0  0  0  0
 19 20  1  0  0  0  0
 20 21  2  0  0  0  0
 20 46  1  0  0  0  0
 21 22  1  0  0  0  0
 23 24  1  1  0  0  0
 23 25  1  0  0  0  0
 23 26  1  0  0  0  0
 25 47  1  0  0  0  0
 26 27  1  1  0  0  0
 26 28  1  0  0  0  0
 28 48  1  0  0  0  0
M  END
$$$$
