CHEMBL175564      none
 OpenBabel11202420153D

 50 54  0  0  1  0  0  0  0  0999 V2000
   33.5286   40.7353   58.8292 N   0  0  0  0  0  0  0  0  0  0  0  0
   33.3365   39.4825   58.3084 C   0  0  0  0  0  0  0  0  0  0  0  0
   32.7819   38.5339   59.0411 N   0  0  0  0  0  0  0  0  0  0  0  0
   32.5958   37.3087   58.5422 C   0  0  0  0  0  0  0  0  0  0  0  0
   32.0175   36.3368   59.3320 N   0  0  0  0  0  0  0  0  0  0  0  0
   31.6135   36.6526   60.7044 C   0  0  0  0  0  0  0  0  0  0  0  0
   31.0043   35.4094   61.3557 C   0  0  1  0  0  0  0  0  0  0  0  0
   30.1299   35.0767   60.7962 H   0  0  0  0  0  0  0  0  0  0  0  0
   32.0551   34.2744   61.4391 C   0  0  0  0  0  0  0  0  0  0  0  0
   31.5065   33.4254   62.6160 C   0  0  0  0  0  0  0  0  0  0  0  0
   30.9193   34.4888   63.5677 C   0  0  0  0  0  0  0  0  0  0  0  0
   30.6398   35.6907   62.7607 N   0  0  0  0  0  0  0  0  0  0  0  0
   29.2281   36.0819   62.8702 C   0  0  0  0  0  0  0  0  0  0  0  0
   29.0098   36.8170   64.1674 C   0  0  0  0  0  0  0  0  0  0  0  0
   28.6706   36.1092   65.3048 C   0  0  0  0  0  0  0  0  0  0  0  0
   28.4720   36.7951   66.4935 C   0  0  0  0  0  0  0  0  0  0  0  0
   28.6226   38.1732   66.4931 C   0  0  0  0  0  0  0  0  0  0  0  0
   28.9634   38.8132   65.3164 C   0  0  0  0  0  0  0  0  0  0  0  0
   29.1499   38.1279   64.2054 N   0  0  0  0  0  0  0  0  0  0  0  0
   32.9509   37.0119   57.3029 N   0  0  0  0  0  0  0  0  0  0  0  0
   33.5137   37.9458   56.5227 C   0  0  0  0  0  0  0  0  0  0  0  0
   33.9600   37.9401   55.2775 N   0  0  0  0  0  0  0  0  0  0  0  0
   34.4390   39.1511   54.9655 C   0  0  0  0  0  0  0  0  0  0  0  0
   35.0224   39.5298   53.6616 C   0  0  0  0  0  0  0  0  0  0  0  0
   35.1572   38.7156   52.5811 C   0  0  0  0  0  0  0  0  0  0  0  0
   35.7574   39.4854   51.5653 C   0  0  0  0  0  0  0  0  0  0  0  0
   35.9572   40.7188   52.0703 C   0  0  0  0  0  0  0  0  0  0  0  0
   35.5075   40.7434   53.3352 O   0  0  0  0  0  0  0  0  0  0  0  0
   34.3081   39.9533   56.0051 N   0  0  0  0  0  0  0  0  0  0  0  0
   33.7136   39.2044   57.0269 N   0  0  0  0  0  0  0  0  0  0  0  0
   33.9344   41.4293   58.2863 H   0  0  0  0  0  0  0  0  0  0  0  0
   33.2588   40.9282   59.7408 H   0  0  0  0  0  0  0  0  0  0  0  0
   31.8782   35.4442   58.9787 H   0  0  0  0  0  0  0  0  0  0  0  0
   30.8752   37.4543   60.6904 H   0  0  0  0  0  0  0  0  0  0  0  0
   32.4855   36.9715   61.2754 H   0  0  0  0  0  0  0  0  0  0  0  0
   33.0425   34.6727   61.6720 H   0  0  0  0  0  0  0  0  0  0  0  0
   32.0774   33.6943   60.5164 H   0  0  0  0  0  0  0  0  0  0  0  0
   32.3120   32.8753   63.1026 H   0  0  0  0  0  0  0  0  0  0  0  0
   30.7284   32.7435   62.2730 H   0  0  0  0  0  0  0  0  0  0  0  0
   31.6413   34.7264   64.3491 H   0  0  0  0  0  0  0  0  0  0  0  0
   29.9964   34.1201   64.0155 H   0  0  0  0  0  0  0  0  0  0  0  0
   28.6013   35.1904   62.8478 H   0  0  0  0  0  0  0  0  0  0  0  0
   28.9654   36.7318   62.0355 H   0  0  0  0  0  0  0  0  0  0  0  0
   28.5620   35.0353   65.2683 H   0  0  0  0  0  0  0  0  0  0  0  0
   28.2064   36.2682   67.3980 H   0  0  0  0  0  0  0  0  0  0  0  0
   28.4759   38.7396   67.4010 H   0  0  0  0  0  0  0  0  0  0  0  0
   29.0831   39.8865   65.3078 H   0  0  0  0  0  0  0  0  0  0  0  0
   34.8613   37.6790   52.5146 H   0  0  0  0  0  0  0  0  0  0  0  0
   36.0100   39.1504   50.5701 H   0  0  0  0  0  0  0  0  0  0  0  0
   36.4014   41.5505   51.5437 H   0  0  0  0  0  0  0  0  0  0  0  0
  1  2  1  0  0  0  0
  1 31  1  0  0  0  0
  1 32  1  0  0  0  0
  2 30  1  0  0  0  0
  2  3  2  0  0  0  0
  3  4  1  0  0  0  0
  4  5  1  0  0  0  0
  4 20  2  0  0  0  0
  5  6  1  0  0  0  0
  5 33  1  0  0  0  0
  6  7  1  0  0  0  0
  6 34  1  0  0  0  0
  6 35  1  0  0  0  0
  7  8  1  6  0  0  0
  7 12  1  0  0  0  0
  7  9  1  0  0  0  0
  9 10  1  0  0  0  0
  9 36  1  0  0  0  0
  9 37  1  0  0  0  0
 10 11  1  0  0  0  0
 10 38  1  0  0  0  0
 10 39  1  0  0  0  0
 11 12  1  0  0  0  0
 11 40  1  0  0  0  0
 11 41  1  0  0  0  0
 12 13  1  0  0  0  0
 13 14  1  0  0  0  0
 13 42  1  0  0  0  0
 13 43  1  0  0  0  0
 14 19  2  0  0  0  0
 14 15  1  0  0  0  0
 15 16  2  0  0  0  0
 15 44  1  0  0  0  0
 16 17  1  0  0  0  0
 16 45  1  0  0  0  0
 17 18  2  0  0  0  0
 17 46  1  0  0  0  0
 18 19  1  0  0  0  0
 18 47  1  0  0  0  0
 20 21  1  0  0  0  0
 21 30  1  0  0  0  0
 21 22  2  0  0  0  0
 22 23  1  0  0  0  0
 23 24  1  0  0  0  0
 23 29  2  0  0  0  0
 24 28  1  0  0  0  0
 24 25  2  0  0  0  0
 25 26  1  0  0  0  0
 25 48  1  0  0  0  0
 26 27  2  0  0  0  0
 26 49  1  0  0  0  0
 27 28  1  0  0  0  0
 27 50  1  0  0  0  0
 29 30  1  0  0  0  0
M  END
$$$$
