CHEMBL178435      none
 OpenBabel11202420153D

 37 40  0  0  1  0  0  0  0  0999 V2000
   34.4858   34.1399   54.5072 C   0  0  0  0  0  0  0  0  0  0  0  0
   33.6406   34.3023   55.7443 C   0  0  0  0  0  0  0  0  0  0  0  0
   32.8847   33.2400   56.2063 C   0  0  0  0  0  0  0  0  0  0  0  0
   32.1062   33.3841   57.3413 C   0  0  0  0  0  0  0  0  0  0  0  0
   32.0830   34.5866   58.0145 C   0  0  0  0  0  0  0  0  0  0  0  0
   31.3497   35.0398   59.2539 C   0  0  0  0  0  0  0  0  0  0  0  0
   31.7516   36.4749   59.4725 C   0  0  0  0  0  0  0  0  0  0  0  0
   31.4193   37.4142   60.4261 C   0  0  0  0  0  0  0  0  0  0  0  0
   30.4654   37.0690   61.5405 C   0  0  1  0  0  0  0  0  0  0  0  0
   31.0537   35.9341   62.4009 C   0  0  0  0  0  0  0  0  0  0  0  0
   31.1306   36.5379   63.8243 C   0  0  0  0  0  0  0  0  0  0  0  0
   30.1083   37.6999   63.7398 C   0  0  1  0  0  0  0  0  0  0  0  0
   30.5244   39.0863   65.0702 Br  0  0  0  0  0  0  0  0  0  0  0  0
   30.2823   38.2083   62.3977 O   0  0  0  0  0  0  0  0  0  0  0  0
   31.9523   38.6253   60.3473 N   0  0  0  0  0  0  0  0  0  0  0  0
   32.7915   38.9356   59.3698 C   0  0  0  0  0  0  0  0  0  0  0  0
   33.3258   40.2115   59.3232 N   0  0  0  0  0  0  0  0  0  0  0  0
   33.1346   38.0612   58.4370 N   0  0  0  0  0  0  0  0  0  0  0  0
   32.6377   36.8250   58.4536 C   0  0  0  0  0  0  0  0  0  0  0  0
   32.8411   35.6628   57.5573 C   0  0  0  0  0  0  0  0  0  0  0  0
   33.6237   35.5097   56.4112 C   0  0  0  0  0  0  0  0  0  0  0  0
   35.4793   33.7914   54.7890 H   0  0  0  0  0  0  0  0  0  0  0  0
   34.0205   33.4121   53.8423 H   0  0  0  0  0  0  0  0  0  0  0  0
   34.5686   35.0987   53.9954 H   0  0  0  0  0  0  0  0  0  0  0  0
   32.9017   32.2969   55.6802 H   0  0  0  0  0  0  0  0  0  0  0  0
   31.5167   32.5535   57.7004 H   0  0  0  0  0  0  0  0  0  0  0  0
   30.2730   34.9708   59.0993 H   0  0  0  0  0  0  0  0  0  0  0  0
   31.6456   34.4317   60.1087 H   0  0  0  0  0  0  0  0  0  0  0  0
   29.5063   36.7599   61.1248 H   0  0  0  0  0  0  0  0  0  0  0  0
   30.3945   35.0660   62.3900 H   0  0  0  0  0  0  0  0  0  0  0  0
   32.0485   35.6634   62.0471 H   0  0  0  0  0  0  0  0  0  0  0  0
   30.8276   35.8069   64.5740 H   0  0  0  0  0  0  0  0  0  0  0  0
   32.1319   36.9146   64.0336 H   0  0  0  0  0  0  0  0  0  0  0  0
   29.0930   37.3287   63.8789 H   0  0  0  0  0  0  0  0  0  0  0  0
   33.9419   40.4538   58.6142 H   0  0  0  0  0  0  0  0  0  0  0  0
   33.0843   40.8636   59.9995 H   0  0  0  0  0  0  0  0  0  0  0  0
   34.2152   36.3363   56.0465 H   0  0  0  0  0  0  0  0  0  0  0  0
  1  2  1  0  0  0  0
  1 22  1  0  0  0  0
  1 23  1  0  0  0  0
  1 24  1  0  0  0  0
  2 21  2  0  0  0  0
  2  3  1  0  0  0  0
  3  4  2  0  0  0  0
  3 25  1  0  0  0  0
  4  5  1  0  0  0  0
  4 26  1  0  0  0  0
  5 20  2  0  0  0  0
  5  6  1  0  0  0  0
  6  7  1  0  0  0  0
  6 27  1  0  0  0  0
  6 28  1  0  0  0  0
  7 19  2  0  0  0  0
  7  8  1  0  0  0  0
  8  9  1  0  0  0  0
  8 15  2  0  0  0  0
  9 14  1  0  0  0  0
  9 10  1  0  0  0  0
  9 29  1  6  0  0  0
 10 11  1  0  0  0  0
 10 30  1  0  0  0  0
 10 31  1  0  0  0  0
 11 12  1  0  0  0  0
 11 32  1  0  0  0  0
 11 33  1  0  0  0  0
 12 13  1  0  0  0  0
 12 14  1  0  0  0  0
 12 34  1  1  0  0  0
 15 16  1  0  0  0  0
 16 17  1  0  0  0  0
 16 18  2  0  0  0  0
 17 35  1  0  0  0  0
 17 36  1  0  0  0  0
 18 19  1  0  0  0  0
 19 20  1  0  0  0  0
 20 21  1  0  0  0  0
 21 37  1  0  0  0  0
M  END
$$$$
