CHEMBL17103      none
 OpenBabel11202420153D

 69 73  0  0  0  0  0  0  0  0999 V2000
   24.5382   27.0615   67.6368 O   0  0  0  0  0  0  0  0  0  0  0  0
   24.7483   27.7834   68.6040 C   0  0  0  0  0  0  0  0  0  0  0  0
   24.2930   27.4850   69.7017 O   0  0  0  0  0  1  0  0  0  0  0  0
   25.5167   28.9618   68.4537 C   0  0  0  0  0  0  0  0  0  0  0  0
   26.0196   29.2916   67.2434 C   0  0  0  0  0  0  0  0  0  0  0  0
   26.8186   30.5140   67.0854 C   0  0  0  0  0  0  0  0  0  0  0  0
   26.7215   31.5404   68.0347 C   0  0  0  0  0  0  0  0  0  0  0  0
   27.4633   32.6771   67.8878 C   0  0  0  0  0  0  0  0  0  0  0  0
   28.3181   32.8179   66.7906 C   0  0  0  0  0  0  0  0  0  0  0  0
   29.1197   34.0484   66.6328 C   0  0  0  0  0  0  0  0  0  0  0  0
   30.0090   34.4911   67.4895 N   0  0  0  0  0  0  0  0  0  0  0  0
   30.5418   35.6335   67.0231 C   0  0  0  0  0  0  0  0  0  0  0  0
   29.9400   35.9123   65.7976 C   0  0  0  0  0  0  0  0  0  0  0  0
   29.0516   34.9111   65.5661 N   0  0  0  0  0  0  0  0  0  0  0  0
   30.3157   37.0401   65.1082 N   0  0  0  0  0  0  0  0  0  0  0  0
   29.6892   37.3417   63.8186 C   0  0  0  0  0  0  0  0  0  0  0  0
   30.4979   36.6916   62.6943 C   0  0  0  0  0  0  0  0  0  0  0  0
   31.7193   37.5573   62.3784 C   0  0  0  0  0  0  0  0  0  0  0  0
   32.5281   36.9073   61.2539 C   0  0  0  0  0  0  0  0  0  0  0  0
   31.6546   36.7822   60.0040 C   0  0  0  0  0  0  0  0  0  0  0  0
   30.4333   35.9166   60.3199 C   0  0  0  0  0  0  0  0  0  0  0  0
   29.6245   36.5665   61.4443 C   0  0  0  0  0  0  0  0  0  0  0  0
   31.2512   37.8700   65.6015 C   0  0  0  0  0  0  0  0  0  0  0  0
   31.5555   38.8574   64.9606 O   0  0  0  0  0  0  0  0  0  0  0  0
   31.8615   37.6480   66.7774 N   0  0  0  0  0  0  0  0  0  0  0  0
   32.8723   38.5942   67.2563 C   0  0  0  0  0  0  0  0  0  0  0  0
   32.1973   39.6786   68.0984 C   0  0  0  0  0  0  0  0  0  0  0  0
   31.5635   40.7208   67.1749 C   0  0  0  0  0  0  0  0  0  0  0  0
   30.8885   41.8052   68.0172 C   0  0  0  0  0  0  0  0  0  0  0  0
   31.9317   42.4814   68.9091 C   0  0  0  0  0  0  0  0  0  0  0  0
   32.5656   41.4391   69.8326 C   0  0  0  0  0  0  0  0  0  0  0  0
   33.2405   40.3547   68.9903 C   0  0  0  0  0  0  0  0  0  0  0  0
   31.5606   36.5621   67.5219 C   0  0  0  0  0  0  0  0  0  0  0  0
   32.1195   36.3613   68.5843 O   0  0  0  0  0  0  0  0  0  0  0  0
   28.4109   31.7976   65.8394 C   0  0  0  0  0  0  0  0  0  0  0  0
   27.6744   30.6572   65.9863 C   0  0  0  0  0  0  0  0  0  0  0  0
   25.7018   29.5982   69.3064 H   0  0  0  0  0  0  0  0  0  0  0  0
   25.8344   28.6550   66.3889 H   0  0  0  0  0  0  0  0  0  0  0  0
   26.0609   31.4321   68.8823 H   0  0  0  0  0  0  0  0  0  0  0  0
   27.3900   33.4678   68.6197 H   0  0  0  0  0  0  0  0  0  0  0  0
   28.4757   34.8218   64.7907 H   0  0  0  0  0  0  0  0  0  0  0  0
   28.6722   36.9494   63.8083 H   0  0  0  0  0  0  0  0  0  0  0  0
   29.6638   38.4213   63.6706 H   0  0  0  0  0  0  0  0  0  0  0  0
   30.8263   35.7010   63.0087 H   0  0  0  0  0  0  0  0  0  0  0  0
   31.3910   38.5480   62.0639 H   0  0  0  0  0  0  0  0  0  0  0  0
   32.3416   37.6465   63.2688 H   0  0  0  0  0  0  0  0  0  0  0  0
   32.8564   35.9167   61.5683 H   0  0  0  0  0  0  0  0  0  0  0  0
   33.3982   37.5241   61.0289 H   0  0  0  0  0  0  0  0  0  0  0  0
   32.2307   36.3192   59.2029 H   0  0  0  0  0  0  0  0  0  0  0  0
   31.3263   37.7729   59.6896 H   0  0  0  0  0  0  0  0  0  0  0  0
   30.7615   34.9260   60.6344 H   0  0  0  0  0  0  0  0  0  0  0  0
   29.8109   35.8275   59.4294 H   0  0  0  0  0  0  0  0  0  0  0  0
   28.7543   35.9499   61.6694 H   0  0  0  0  0  0  0  0  0  0  0  0
   29.2961   37.5573   61.1299 H   0  0  0  0  0  0  0  0  0  0  0  0
   33.3718   39.0545   66.4038 H   0  0  0  0  0  0  0  0  0  0  0  0
   33.6057   38.0652   67.8649 H   0  0  0  0  0  0  0  0  0  0  0  0
   31.4249   39.2270   68.7209 H   0  0  0  0  0  0  0  0  0  0  0  0
   30.8202   40.2392   66.5396 H   0  0  0  0  0  0  0  0  0  0  0  0
   32.3359   41.1725   66.5525 H   0  0  0  0  0  0  0  0  0  0  0  0
   30.1161   41.3536   68.6397 H   0  0  0  0  0  0  0  0  0  0  0  0
   30.4369   42.5477   67.3593 H   0  0  0  0  0  0  0  0  0  0  0  0
   32.7041   42.9330   68.2866 H   0  0  0  0  0  0  0  0  0  0  0  0
   31.4508   43.2540   69.5090 H   0  0  0  0  0  0  0  0  0  0  0  0
   33.3087   41.9208   70.4680 H   0  0  0  0  0  0  0  0  0  0  0  0
   31.7932   40.9876   70.4551 H   0  0  0  0  0  0  0  0  0  0  0  0
   33.6921   39.6122   69.6482 H   0  0  0  0  0  0  0  0  0  0  0  0
   34.0129   40.8063   68.3678 H   0  0  0  0  0  0  0  0  0  0  0  0
   29.0686   31.9095   64.9901 H   0  0  0  0  0  0  0  0  0  0  0  0
   27.7489   29.8676   65.2535 H   0  0  0  0  0  0  0  0  0  0  0  0
  1  2  2  0  0  0  0
  2  3  1  0  0  0  0
  2  4  1  0  0  0  0
  4  5  2  0  0  0  0
  4 37  1  0  0  0  0
  5  6  1  0  0  0  0
  5 38  1  0  0  0  0
  6 36  2  0  0  0  0
  6  7  1  0  0  0  0
  7  8  2  0  0  0  0
  7 39  1  0  0  0  0
  8  9  1  0  0  0  0
  8 40  1  0  0  0  0
  9 10  1  0  0  0  0
  9 35  2  0  0  0  0
 10 14  1  0  0  0  0
 10 11  2  0  0  0  0
 11 12  1  0  0  0  0
 12 33  1  0  0  0  0
 12 13  2  0  0  0  0
 13 14  1  0  0  0  0
 13 15  1  0  0  0  0
 14 41  1  0  0  0  0
 15 16  1  0  0  0  0
 15 23  1  0  0  0  0
 16 17  1  0  0  0  0
 16 42  1  0  0  0  0
 16 43  1  0  0  0  0
 17 22  1  0  0  0  0
 17 18  1  0  0  0  0
 17 44  1  0  0  0  0
 18 19  1  0  0  0  0
 18 45  1  0  0  0  0
 18 46  1  0  0  0  0
 19 20  1  0  0  0  0
 19 47  1  0  0  0  0
 19 48  1  0  0  0  0
 20 21  1  0  0  0  0
 20 49  1  0  0  0  0
 20 50  1  0  0  0  0
 21 22  1  0  0  0  0
 21 51  1  0  0  0  0
 21 52  1  0  0  0  0
 22 53  1  0  0  0  0
 22 54  1  0  0  0  0
 23 24  2  0  0  0  0
 23 25  1  0  0  0  0
 25 26  1  0  0  0  0
 25 33  1  0  0  0  0
 26 27  1  0  0  0  0
 26 55  1  0  0  0  0
 26 56  1  0  0  0  0
 27 32  1  0  0  0  0
 27 28  1  0  0  0  0
 27 57  1  0  0  0  0
 28 29  1  0  0  0  0
 28 58  1  0  0  0  0
 28 59  1  0  0  0  0
 29 30  1  0  0  0  0
 29 60  1  0  0  0  0
 29 61  1  0  0  0  0
 30 31  1  0  0  0  0
 30 62  1  0  0  0  0
 30 63  1  0  0  0  0
 31 32  1  0  0  0  0
 31 64  1  0  0  0  0
 31 65  1  0  0  0  0
 32 66  1  0  0  0  0
 32 67  1  0  0  0  0
 33 34  2  0  0  0  0
 35 36  1  0  0  0  0
 35 68  1  0  0  0  0
 36 69  1  0  0  0  0
M  END
$$$$
