CHEMBL77279      none
 OpenBabel11202420153D

 59 61  0  0  0  0  0  0  0  0999 V2000
   28.7603   41.5685   68.2534 C   0  0  0  0  0  0  0  0  0  0  0  0
   28.8067   40.5347   67.1264 C   0  0  0  0  0  0  0  0  0  0  0  0
   30.0375   39.6430   67.3026 C   0  0  0  0  0  0  0  0  0  0  0  0
   30.0819   38.6532   66.2235 N   0  0  0  0  0  0  0  0  0  0  0  0
   30.7337   38.9465   65.0777 C   0  0  0  0  0  0  0  0  0  0  0  0
   31.2833   40.0228   64.9321 O   0  0  0  0  0  0  0  0  0  0  0  0
   30.7637   37.9394   64.0134 C   0  0  0  0  0  0  0  0  0  0  0  0
   30.1216   36.7241   64.2384 C   0  0  0  0  0  0  0  0  0  0  0  0
   30.3012   35.9758   63.1174 N   0  0  0  0  0  0  0  0  0  0  0  0
   31.0438   36.7282   62.2370 C   0  0  0  0  0  0  0  0  0  0  0  0
   31.4661   36.3011   60.8996 C   0  0  0  0  0  0  0  0  0  0  0  0
   32.1938   37.1299   60.1263 C   0  0  0  0  0  0  0  0  0  0  0  0
   32.6178   36.7011   58.7836 C   0  0  0  0  0  0  0  0  0  0  0  0
   32.6476   35.3413   58.4591 C   0  0  0  0  0  0  0  0  0  0  0  0
   33.0414   34.9423   57.1950 C   0  0  0  0  0  0  0  0  0  0  0  0
   33.0654   33.6204   56.8767 O   0  0  0  0  0  0  0  0  0  0  0  0
   31.8721   33.0653   56.3203 C   0  0  0  0  0  0  0  0  0  0  0  0
   33.4184   35.8918   56.2497 C   0  0  0  0  0  0  0  0  0  0  0  0
   33.8110   35.4955   55.0092 O   0  0  0  0  0  0  0  0  0  0  0  0
   33.0482   35.9792   53.9019 C   0  0  0  0  0  0  0  0  0  0  0  0
   33.3950   37.2458   56.5709 C   0  0  0  0  0  0  0  0  0  0  0  0
   33.7641   38.1702   55.6442 O   0  0  0  0  0  0  0  0  0  0  0  0
   33.7162   39.5420   56.0415 C   0  0  0  0  0  0  0  0  0  0  0  0
   32.9972   37.6522   57.8314 C   0  0  0  0  0  0  0  0  0  0  0  0
   31.3036   37.8965   62.7820 N   0  0  0  0  0  0  0  0  0  0  0  0
   29.4785   36.5178   65.4357 N   0  0  0  0  0  0  0  0  0  0  0  0
   28.7950   35.2452   65.6796 C   0  0  0  0  0  0  0  0  0  0  0  0
   29.7706   34.2574   66.3225 C   0  0  0  0  0  0  0  0  0  0  0  0
   29.0567   32.9283   66.5773 C   0  0  0  0  0  0  0  0  0  0  0  0
   29.4734   37.4671   66.3879 C   0  0  0  0  0  0  0  0  0  0  0  0
   28.8970   37.2439   67.4349 O   0  0  0  0  0  0  0  0  0  0  0  0
   28.7034   41.0565   69.2140 H   0  0  0  0  0  0  0  0  0  0  0  0
   29.6609   42.1817   68.2212 H   0  0  0  0  0  0  0  0  0  0  0  0
   27.8834   42.2037   68.1279 H   0  0  0  0  0  0  0  0  0  0  0  0
   28.8635   41.0467   66.1658 H   0  0  0  0  0  0  0  0  0  0  0  0
   27.9062   39.9213   67.1586 H   0  0  0  0  0  0  0  0  0  0  0  0
   29.9807   39.1311   68.2632 H   0  0  0  0  0  0  0  0  0  0  0  0
   30.9380   40.2563   67.2705 H   0  0  0  0  0  0  0  0  0  0  0  0
   29.9673   35.0777   62.9666 H   0  0  0  0  0  0  0  0  0  0  0  0
   31.1938   35.3219   60.5342 H   0  0  0  0  0  0  0  0  0  0  0  0
   32.4662   38.1092   60.4916 H   0  0  0  0  0  0  0  0  0  0  0  0
   32.3599   34.6038   59.1936 H   0  0  0  0  0  0  0  0  0  0  0  0
   32.0262   32.0064   56.1127 H   0  0  0  0  0  0  0  0  0  0  0  0
   31.0524   33.1809   57.0295 H   0  0  0  0  0  0  0  0  0  0  0  0
   31.6271   33.5851   55.3941 H   0  0  0  0  0  0  0  0  0  0  0  0
   33.4667   35.5889   52.9742 H   0  0  0  0  0  0  0  0  0  0  0  0
   32.0141   35.6492   54.0013 H   0  0  0  0  0  0  0  0  0  0  0  0
   33.0819   37.0687   53.8857 H   0  0  0  0  0  0  0  0  0  0  0  0
   34.3809   39.6977   56.8914 H   0  0  0  0  0  0  0  0  0  0  0  0
   34.0346   40.1720   55.2111 H   0  0  0  0  0  0  0  0  0  0  0  0
   32.6966   39.8027   56.3252 H   0  0  0  0  0  0  0  0  0  0  0  0
   32.9800   38.7030   58.0803 H   0  0  0  0  0  0  0  0  0  0  0  0
   28.4363   34.8384   64.7342 H   0  0  0  0  0  0  0  0  0  0  0  0
   27.9501   35.4091   66.3486 H   0  0  0  0  0  0  0  0  0  0  0  0
   30.6154   34.0937   65.6535 H   0  0  0  0  0  0  0  0  0  0  0  0
   30.1293   34.6643   67.2679 H   0  0  0  0  0  0  0  0  0  0  0  0
   28.2119   33.0921   67.2463 H   0  0  0  0  0  0  0  0  0  0  0  0
   28.6980   32.5215   65.6318 H   0  0  0  0  0  0  0  0  0  0  0  0
   29.7517   32.2246   67.0353 H   0  0  0  0  0  0  0  0  0  0  0  0
  1  2  1  0  0  0  0
  1 32  1  0  0  0  0
  1 33  1  0  0  0  0
  1 34  1  0  0  0  0
  2  3  1  0  0  0  0
  2 35  1  0  0  0  0
  2 36  1  0  0  0  0
  3  4  1  0  0  0  0
  3 37  1  0  0  0  0
  3 38  1  0  0  0  0
  4 30  1  0  0  0  0
  4  5  1  0  0  0  0
  5  6  2  0  0  0  0
  5  7  1  0  0  0  0
  7 25  1  0  0  0  0
  7  8  2  0  0  0  0
  8  9  1  0  0  0  0
  8 26  1  0  0  0  0
  9 10  1  0  0  0  0
  9 39  1  0  0  0  0
 10 11  1  0  0  0  0
 10 25  2  0  0  0  0
 11 12  2  0  0  0  0
 11 40  1  0  0  0  0
 12 13  1  0  0  0  0
 12 41  1  0  0  0  0
 13 24  2  0  0  0  0
 13 14  1  0  0  0  0
 14 15  2  0  0  0  0
 14 42  1  0  0  0  0
 15 16  1  0  0  0  0
 15 18  1  0  0  0  0
 16 17  1  0  0  0  0
 17 43  1  0  0  0  0
 17 44  1  0  0  0  0
 17 45  1  0  0  0  0
 18 19  1  0  0  0  0
 18 21  2  0  0  0  0
 19 20  1  0  0  0  0
 20 46  1  0  0  0  0
 20 47  1  0  0  0  0
 20 48  1  0  0  0  0
 21 22  1  0  0  0  0
 21 24  1  0  0  0  0
 22 23  1  0  0  0  0
 23 49  1  0  0  0  0
 23 50  1  0  0  0  0
 23 51  1  0  0  0  0
 24 52  1  0  0  0  0
 26 27  1  0  0  0  0
 26 30  1  0  0  0  0
 27 28  1  0  0  0  0
 27 53  1  0  0  0  0
 27 54  1  0  0  0  0
 28 29  1  0  0  0  0
 28 55  1  0  0  0  0
 28 56  1  0  0  0  0
 29 57  1  0  0  0  0
 29 58  1  0  0  0  0
 29 59  1  0  0  0  0
 30 31  2  0  0  0  0
M  END
$$$$
