CHEMBL220445      none
 OpenBabel11202420153D

 28 29  0  0  0  0  0  0  0  0999 V2000
   31.1210   35.8967   62.2480 C   0  0  0  0  0  0  0  0  0  0  0  0
   31.6927   36.8990   61.2433 C   0  0  0  0  0  0  0  0  0  0  0  0
   32.0227   36.0590   59.6744 S   0  0  0  0  0  0  0  0  0  0  0  0
   32.6545   37.4075   58.7323 C   0  0  0  0  0  0  0  0  0  0  0  0
   32.7525   38.6143   59.2819 N   0  0  0  0  0  0  0  0  0  0  0  0
   33.2243   39.6325   58.5699 C   0  0  0  0  0  0  0  0  0  0  0  0
   33.3206   40.8864   59.1390 N   0  0  0  0  0  0  0  0  0  0  0  0
   33.6087   39.4426   57.3115 N   0  0  0  0  0  0  0  0  0  0  0  0
   33.5160   38.2344   56.7629 C   0  0  0  0  0  0  0  0  0  0  0  0
   33.9443   38.0226   55.3591 C   0  0  0  0  0  0  0  0  0  0  0  0
   33.8537   36.7563   54.7835 C   0  0  0  0  0  0  0  0  0  0  0  0
   34.2493   36.5661   53.4752 C   0  0  0  0  0  0  0  0  0  0  0  0
   34.7444   37.6270   52.7383 C   0  0  0  0  0  0  0  0  0  0  0  0
   34.8419   38.8846   53.3062 C   0  0  0  0  0  0  0  0  0  0  0  0
   34.4444   39.0877   54.6119 C   0  0  0  0  0  0  0  0  0  0  0  0
   33.0390   37.2168   57.4732 N   0  0  0  0  0  0  0  0  0  0  0  0
   30.9223   36.4026   63.1929 H   0  0  0  0  0  0  0  0  0  0  0  0
   30.1930   35.4795   61.8571 H   0  0  0  0  0  0  0  0  0  0  0  0
   31.8404   35.0941   62.4099 H   0  0  0  0  0  0  0  0  0  0  0  0
   32.6207   37.3162   61.6342 H   0  0  0  0  0  0  0  0  0  0  0  0
   30.9733   37.7018   61.0814 H   0  0  0  0  0  0  0  0  0  0  0  0
   33.6686   41.6288   58.6208 H   0  0  0  0  0  0  0  0  0  0  0  0
   33.0401   41.0251   60.0572 H   0  0  0  0  0  0  0  0  0  0  0  0
   33.4708   35.9264   55.3591 H   0  0  0  0  0  0  0  0  0  0  0  0
   34.1758   35.5863   53.0268 H   0  0  0  0  0  0  0  0  0  0  0  0
   35.0564   37.4727   51.7159 H   0  0  0  0  0  0  0  0  0  0  0  0
   35.2296   39.7092   52.7263 H   0  0  0  0  0  0  0  0  0  0  0  0
   34.5204   40.0702   55.0541 H   0  0  0  0  0  0  0  0  0  0  0  0
  1  2  1  0  0  0  0
  1 17  1  0  0  0  0
  1 18  1  0  0  0  0
  1 19  1  0  0  0  0
  2  3  1  0  0  0  0
  2 20  1  0  0  0  0
  2 21  1  0  0  0  0
  3  4  1  0  0  0  0
  4 16  2  0  0  0  0
  4  5  1  0  0  0  0
  5  6  2  0  0  0  0
  6  7  1  0  0  0  0
  6  8  1  0  0  0  0
  7 22  1  0  0  0  0
  7 23  1  0  0  0  0
  8  9  2  0  0  0  0
  9 10  1  0  0  0  0
  9 16  1  0  0  0  0
 10 15  2  0  0  0  0
 10 11  1  0  0  0  0
 11 12  2  0  0  0  0
 11 24  1  0  0  0  0
 12 13  1  0  0  0  0
 12 25  1  0  0  0  0
 13 14  2  0  0  0  0
 13 26  1  0  0  0  0
 14 15  1  0  0  0  0
 14 27  1  0  0  0  0
 15 28  1  0  0  0  0
M  END
$$$$
