CHEMBL178589      none
 OpenBabel11202420153D

 31 34  0  0  0  0  0  0  0  0999 V2000
   33.1632   40.9366   59.2735 N   0  0  0  0  0  0  0  0  0  0  0  0
   33.1162   39.6280   58.8525 C   0  0  0  0  0  0  0  0  0  0  0  0
   32.6861   38.7003   59.6767 N   0  0  0  0  0  0  0  0  0  0  0  0
   32.6217   37.4100   59.3133 C   0  0  0  0  0  0  0  0  0  0  0  0
   32.1305   36.3945   60.2745 C   0  0  0  0  0  0  0  0  0  0  0  0
   32.3108   36.5718   61.6497 C   0  0  0  0  0  0  0  0  0  0  0  0
   31.8337   35.5940   62.5057 C   0  0  0  0  0  0  0  0  0  0  0  0
   31.2000   34.4837   61.9785 C   0  0  0  0  0  0  0  0  0  0  0  0
   31.0440   34.3437   60.6759 N   0  0  0  0  0  0  0  0  0  0  0  0
   31.4760   35.2493   59.8227 C   0  0  0  0  0  0  0  0  0  0  0  0
   33.0136   37.0261   58.0435 C   0  0  0  0  0  0  0  0  0  0  0  0
   33.4751   38.0158   57.1570 C   0  0  0  0  0  0  0  0  0  0  0  0
   33.9135   37.9916   55.9081 N   0  0  0  0  0  0  0  0  0  0  0  0
   34.2355   39.2304   55.5223 C   0  0  0  0  0  0  0  0  0  0  0  0
   34.7623   39.6012   54.1921 C   0  0  0  0  0  0  0  0  0  0  0  0
   35.0051   38.7462   53.1635 C   0  0  0  0  0  0  0  0  0  0  0  0
   35.4937   39.5246   52.0956 C   0  0  0  0  0  0  0  0  0  0  0  0
   35.5332   40.8017   52.5236 C   0  0  0  0  0  0  0  0  0  0  0  0
   35.0907   40.8444   53.7904 O   0  0  0  0  0  0  0  0  0  0  0  0
   34.0146   40.0705   56.5175 N   0  0  0  0  0  0  0  0  0  0  0  0
   33.5172   39.3172   57.5886 N   0  0  0  0  0  0  0  0  0  0  0  0
   33.4797   41.6285   58.6719 H   0  0  0  0  0  0  0  0  0  0  0  0
   32.8797   41.1674   60.1719 H   0  0  0  0  0  0  0  0  0  0  0  0
   32.8092   37.4493   62.0343 H   0  0  0  0  0  0  0  0  0  0  0  0
   31.9548   35.6975   63.5739 H   0  0  0  0  0  0  0  0  0  0  0  0
   30.8267   33.7191   62.6436 H   0  0  0  0  0  0  0  0  0  0  0  0
   31.3256   35.1013   58.7634 H   0  0  0  0  0  0  0  0  0  0  0  0
   32.9658   35.9908   57.7397 H   0  0  0  0  0  0  0  0  0  0  0  0
   34.8513   37.6772   53.1642 H   0  0  0  0  0  0  0  0  0  0  0  0
   35.7855   39.1649   51.1198 H   0  0  0  0  0  0  0  0  0  0  0  0
   35.8659   41.6501   51.9439 H   0  0  0  0  0  0  0  0  0  0  0  0
  1  2  1  0  0  0  0
  1 22  1  0  0  0  0
  1 23  1  0  0  0  0
  2 21  1  0  0  0  0
  2  3  2  0  0  0  0
  3  4  1  0  0  0  0
  4  5  1  0  0  0  0
  4 11  2  0  0  0  0
  5 10  2  0  0  0  0
  5  6  1  0  0  0  0
  6  7  2  0  0  0  0
  6 24  1  0  0  0  0
  7  8  1  0  0  0  0
  7 25  1  0  0  0  0
  8  9  2  0  0  0  0
  8 26  1  0  0  0  0
  9 10  1  0  0  0  0
 10 27  1  0  0  0  0
 11 12  1  0  0  0  0
 11 28  1  0  0  0  0
 12 21  1  0  0  0  0
 12 13  2  0  0  0  0
 13 14  1  0  0  0  0
 14 15  1  0  0  0  0
 14 20  2  0  0  0  0
 15 19  1  0  0  0  0
 15 16  2  0  0  0  0
 16 17  1  0  0  0  0
 16 29  1  0  0  0  0
 17 18  2  0  0  0  0
 17 30  1  0  0  0  0
 18 19  1  0  0  0  0
 18 31  1  0  0  0  0
 20 21  1  0  0  0  0
M  END
$$$$
