CHEMBL1092271      none
 OpenBabel11202420153D

 30 33  0  0  0  0  0  0  0  0999 V2000
   33.0346   36.8074   63.9056 C   0  0  0  0  0  0  0  0  0  0  0  0
   32.6516   35.7571   63.2229 C   0  0  0  0  0  0  0  0  0  0  0  0
   31.4490   35.8436   62.3187 C   0  0  0  0  0  0  0  0  0  0  0  0
   31.8501   35.5415   60.9424 N   0  0  0  0  0  0  0  0  0  0  0  0
   31.8194   34.2853   60.4840 C   0  0  0  0  0  0  0  0  0  0  0  0
   31.3436   32.8837   61.3442 S   0  0  0  0  0  0  0  0  0  0  0  0
   32.3734   34.3708   58.8025 S   0  0  0  0  0  0  0  0  0  0  0  0
   32.6148   36.1209   58.8253 C   0  0  0  0  0  0  0  0  0  0  0  0
   32.2649   36.5445   60.0975 C   0  0  0  0  0  0  0  0  0  0  0  0
   32.3671   37.8702   60.3638 N   0  0  0  0  0  0  0  0  0  0  0  0
   32.7736   38.7322   59.4809 C   0  0  0  0  0  0  0  0  0  0  0  0
   33.1264   38.3677   58.2242 N   0  0  0  0  0  0  0  0  0  0  0  0
   33.5862   39.0595   57.0981 N   0  0  0  0  0  0  0  0  0  0  0  0
   33.7671   38.1655   56.1414 C   0  0  0  0  0  0  0  0  0  0  0  0
   34.2475   38.4607   54.7752 C   0  0  0  0  0  0  0  0  0  0  0  0
   34.4373   37.5516   53.7825 C   0  0  0  0  0  0  0  0  0  0  0  0
   34.8931   38.2678   52.6580 C   0  0  0  0  0  0  0  0  0  0  0  0
   34.9668   39.5641   53.0189 C   0  0  0  0  0  0  0  0  0  0  0  0
   34.5727   39.6774   54.2974 O   0  0  0  0  0  0  0  0  0  0  0  0
   33.4422   36.9537   56.6013 N   0  0  0  0  0  0  0  0  0  0  0  0
   33.0551   37.0452   57.8635 C   0  0  0  0  0  0  0  0  0  0  0  0
   33.8965   36.7455   64.5536 H   0  0  0  0  0  0  0  0  0  0  0  0
   32.4886   37.7354   63.8205 H   0  0  0  0  0  0  0  0  0  0  0  0
   33.1976   34.8292   63.3079 H   0  0  0  0  0  0  0  0  0  0  0  0
   31.0326   36.8500   62.3632 H   0  0  0  0  0  0  0  0  0  0  0  0
   30.6972   35.1246   62.6442 H   0  0  0  0  0  0  0  0  0  0  0  0
   32.8321   39.7745   59.7577 H   0  0  0  0  0  0  0  0  0  0  0  0
   34.2675   36.4868   53.8428 H   0  0  0  0  0  0  0  0  0  0  0  0
   35.1392   37.8555   51.6906 H   0  0  0  0  0  0  0  0  0  0  0  0
   35.2854   40.3774   52.3838 H   0  0  0  0  0  0  0  0  0  0  0  0
  1  2  2  0  0  0  0
  1 22  1  0  0  0  0
  1 23  1  0  0  0  0
  2  3  1  0  0  0  0
  2 24  1  0  0  0  0
  3  4  1  0  0  0  0
  3 25  1  0  0  0  0
  3 26  1  0  0  0  0
  4  9  1  0  0  0  0
  4  5  1  0  0  0  0
  5  6  2  0  0  0  0
  5  7  1  0  0  0  0
  7  8  1  0  0  0  0
  8 21  1  0  0  0  0
  8  9  2  0  0  0  0
  9 10  1  0  0  0  0
 10 11  2  0  0  0  0
 11 12  1  0  0  0  0
 11 27  1  0  0  0  0
 12 21  1  0  0  0  0
 12 13  1  0  0  0  0
 13 14  2  0  0  0  0
 14 15  1  0  0  0  0
 14 20  1  0  0  0  0
 15 19  1  0  0  0  0
 15 16  2  0  0  0  0
 16 17  1  0  0  0  0
 16 28  1  0  0  0  0
 17 18  2  0  0  0  0
 17 29  1  0  0  0  0
 18 19  1  0  0  0  0
 18 30  1  0  0  0  0
 20 21  2  0  0  0  0
M  END
$$$$
