CHEMBL483242      none
 OpenBabel11202420153D

 54 56  0  0  1  0  0  0  0  0999 V2000
   31.9195   38.7654   57.5029 C   0  0  0  0  0  0  0  0  0  0  0  0
   32.8560   38.1940   58.5694 C   0  0  0  0  0  0  0  0  0  0  0  0
   32.1708   37.1238   59.2983 N   0  0  0  0  0  0  0  0  0  0  0  0
   31.4353   37.4409   60.4119 C   0  0  0  0  0  0  0  0  0  0  0  0
   31.3674   38.5658   60.8589 O   0  0  0  0  0  0  0  0  0  0  0  0
   30.7325   36.2843   61.0408 C   0  0  1  0  0  0  0  0  0  0  0  0
   31.7650   35.1129   61.0446 C   0  0  1  0  0  0  0  0  0  0  0  0
   31.1387   34.2021   61.9734 N   0  0  0  0  0  0  0  0  0  0  0  0
   30.4076   34.9361   62.8008 C   0  0  0  0  0  0  0  0  0  0  0  0
   29.6388   34.3881   63.9246 C   0  0  0  0  0  0  0  0  0  0  0  0
   29.6495   33.0634   64.1651 C   0  0  0  0  0  0  0  0  0  0  0  0
   28.8788   32.5139   65.2919 C   0  0  0  0  0  0  0  0  0  0  0  0
   27.8293   33.2510   65.8490 C   0  0  0  0  0  0  0  0  0  0  0  0
   27.1088   32.7341   66.9045 C   0  0  0  0  0  0  0  0  0  0  0  0
   27.4218   31.4827   67.4160 C   0  0  0  0  0  0  0  0  0  0  0  0
   26.7045   30.9758   68.4528 O   0  0  0  0  0  0  0  0  0  0  0  0
   27.1743   31.2674   69.7704 C   0  0  0  0  0  0  0  0  0  0  0  0
   28.4665   30.7415   66.8654 C   0  0  0  0  0  0  0  0  0  0  0  0
   28.7698   29.5155   67.3698 O   0  0  0  0  0  0  0  0  0  0  0  0
   28.1012   28.3927   66.7916 C   0  0  0  0  0  0  0  0  0  0  0  0
   29.1937   31.2522   65.8082 C   0  0  0  0  0  0  0  0  0  0  0  0
   30.4617   36.3009   62.4769 N   0  0  0  0  0  0  0  0  0  0  0  0
   30.2889   37.4567   63.3604 C   0  0  0  0  0  0  0  0  0  0  0  0
   32.0330   34.7895   59.6691 N   0  0  0  0  0  0  0  0  0  0  0  0
   32.0539   33.4086   59.1802 C   0  0  0  0  0  0  0  0  0  0  0  0
   30.6513   33.0107   58.7163 C   0  0  0  0  0  0  0  0  0  0  0  0
   32.2663   35.8557   58.8500 C   0  0  0  0  0  0  0  0  0  0  0  0
   32.5674   35.6578   57.6893 O   0  0  0  0  0  0  0  0  0  0  0  0
   32.4293   39.5617   56.9606 H   0  0  0  0  0  0  0  0  0  0  0  0
   31.6363   37.9755   56.8072 H   0  0  0  0  0  0  0  0  0  0  0  0
   31.0257   39.1660   57.9811 H   0  0  0  0  0  0  0  0  0  0  0  0
   33.1392   38.9839   59.2651 H   0  0  0  0  0  0  0  0  0  0  0  0
   33.7498   37.7934   58.0911 H   0  0  0  0  0  0  0  0  0  0  0  0
   29.8369   36.0210   60.4780 H   0  0  0  0  0  0  0  0  0  0  0  0
   32.6895   35.4772   61.4927 H   0  0  0  0  0  0  0  0  0  0  0  0
   29.0647   35.0473   64.5587 H   0  0  0  0  0  0  0  0  0  0  0  0
   30.2236   32.4041   63.5311 H   0  0  0  0  0  0  0  0  0  0  0  0
   27.5833   34.2250   65.4528 H   0  0  0  0  0  0  0  0  0  0  0  0
   26.2987   33.3044   67.3343 H   0  0  0  0  0  0  0  0  0  0  0  0
   28.1833   30.8734   69.8920 H   0  0  0  0  0  0  0  0  0  0  0  0
   27.1852   32.3468   69.9219 H   0  0  0  0  0  0  0  0  0  0  0  0
   26.5128   30.8045   70.5027 H   0  0  0  0  0  0  0  0  0  0  0  0
   27.0247   28.5045   66.9213 H   0  0  0  0  0  0  0  0  0  0  0  0
   28.3354   28.3381   65.7285 H   0  0  0  0  0  0  0  0  0  0  0  0
   28.4333   27.4788   67.2843 H   0  0  0  0  0  0  0  0  0  0  0  0
   30.0036   30.6794   65.3812 H   0  0  0  0  0  0  0  0  0  0  0  0
   30.0991   37.1119   64.3769 H   0  0  0  0  0  0  0  0  0  0  0  0
   31.1940   38.0639   63.3456 H   0  0  0  0  0  0  0  0  0  0  0  0
   29.4448   38.0544   63.0159 H   0  0  0  0  0  0  0  0  0  0  0  0
   32.7491   33.3296   58.3445 H   0  0  0  0  0  0  0  0  0  0  0  0
   32.3734   32.7439   59.9827 H   0  0  0  0  0  0  0  0  0  0  0  0
   29.9561   33.0897   59.5520 H   0  0  0  0  0  0  0  0  0  0  0  0
   30.3318   33.6755   57.9137 H   0  0  0  0  0  0  0  0  0  0  0  0
   30.6668   31.9832   58.3524 H   0  0  0  0  0  0  0  0  0  0  0  0
  1  2  1  0  0  0  0
  1 29  1  0  0  0  0
  1 30  1  0  0  0  0
  1 31  1  0  0  0  0
  2  3  1  0  0  0  0
  2 32  1  0  0  0  0
  2 33  1  0  0  0  0
  3 27  1  0  0  0  0
  3  4  1  0  0  0  0
  4  5  2  0  0  0  0
  4  6  1  0  0  0  0
  6 22  1  0  0  0  0
  6  7  1  0  0  0  0
  6 34  1  6  0  0  0
  7  8  1  0  0  0  0
  7 24  1  0  0  0  0
  7 35  1  1  0  0  0
  8  9  2  0  0  0  0
  9 10  1  0  0  0  0
  9 22  1  0  0  0  0
 10 11  2  0  0  0  0
 10 36  1  0  0  0  0
 11 12  1  0  0  0  0
 11 37  1  0  0  0  0
 12 21  2  0  0  0  0
 12 13  1  0  0  0  0
 13 14  2  0  0  0  0
 13 38  1  0  0  0  0
 14 15  1  0  0  0  0
 14 39  1  0  0  0  0
 15 16  1  0  0  0  0
 15 18  2  0  0  0  0
 16 17  1  0  0  0  0
 17 40  1  0  0  0  0
 17 41  1  0  0  0  0
 17 42  1  0  0  0  0
 18 19  1  0  0  0  0
 18 21  1  0  0  0  0
 19 20  1  0  0  0  0
 20 43  1  0  0  0  0
 20 44  1  0  0  0  0
 20 45  1  0  0  0  0
 21 46  1  0  0  0  0
 22 23  1  0  0  0  0
 23 47  1  0  0  0  0
 23 48  1  0  0  0  0
 23 49  1  0  0  0  0
 24 25  1  0  0  0  0
 24 27  1  0  0  0  0
 25 26  1  0  0  0  0
 25 50  1  0  0  0  0
 25 51  1  0  0  0  0
 26 52  1  0  0  0  0
 26 53  1  0  0  0  0
 26 54  1  0  0  0  0
 27 28  2  0  0  0  0
M  END
$$$$
