CHEMBL571672      none
 OpenBabel11202420153D

 35 37  0  0  0  0  0  0  0  0999 V2000
   33.2743   40.8132   59.0297 N   0  0  0  0  0  0  0  0  0  0  0  0
   33.2615   39.5907   58.3802 C   0  0  0  0  0  0  0  0  0  0  0  0
   32.8619   38.5162   59.0408 N   0  0  0  0  0  0  0  0  0  0  0  0
   32.8346   37.3204   58.4525 C   0  0  0  0  0  0  0  0  0  0  0  0
   32.3847   36.1225   59.2045 C   0  0  0  0  0  0  0  0  0  0  0  0
   32.3631   35.0365   58.6605 O   0  0  0  0  0  0  0  0  0  0  0  0
   32.0002   36.2394   60.4909 N   0  0  0  0  0  0  0  0  0  0  0  0
   31.5562   35.0570   61.2332 C   0  0  0  0  0  0  0  0  0  0  0  0
   31.1845   35.4561   62.6380 C   0  0  0  0  0  0  0  0  0  0  0  0
   32.1341   35.4366   63.6478 C   0  0  0  0  0  0  0  0  0  0  0  0
   31.7482   35.8176   64.9241 C   0  0  0  0  0  0  0  0  0  0  0  0
   30.4364   36.1894   65.1481 C   0  0  0  0  0  0  0  0  0  0  0  0
   29.5582   36.1908   64.1642 N   0  0  0  0  0  0  0  0  0  0  0  0
   29.8909   35.8407   62.9373 C   0  0  0  0  0  0  0  0  0  0  0  0
   33.2337   37.2102   57.1250 C   0  0  0  0  0  0  0  0  0  0  0  0
   33.6510   38.3717   56.4574 C   0  0  0  0  0  0  0  0  0  0  0  0
   34.0840   38.3113   55.0488 C   0  0  0  0  0  0  0  0  0  0  0  0
   34.5140   39.3632   54.2989 C   0  0  0  0  0  0  0  0  0  0  0  0
   34.8220   38.8529   53.0243 C   0  0  0  0  0  0  0  0  0  0  0  0
   34.5682   37.5285   53.0562 C   0  0  0  0  0  0  0  0  0  0  0  0
   34.1285   37.2043   54.2817 O   0  0  0  0  0  0  0  0  0  0  0  0
   33.6496   39.5301   57.1157 N   0  0  0  0  0  0  0  0  0  0  0  0
   32.9927   40.8733   59.9561 H   0  0  0  0  0  0  0  0  0  0  0  0
   33.5646   41.6098   58.5585 H   0  0  0  0  0  0  0  0  0  0  0  0
   32.0175   37.1066   60.9253 H   0  0  0  0  0  0  0  0  0  0  0  0
   30.6884   34.6216   60.7376 H   0  0  0  0  0  0  0  0  0  0  0  0
   32.3623   34.3241   61.2649 H   0  0  0  0  0  0  0  0  0  0  0  0
   33.1514   35.1364   63.4443 H   0  0  0  0  0  0  0  0  0  0  0  0
   32.4628   35.8185   65.7339 H   0  0  0  0  0  0  0  0  0  0  0  0
   30.1267   36.4825   66.1403 H   0  0  0  0  0  0  0  0  0  0  0  0
   29.1442   35.8542   62.1572 H   0  0  0  0  0  0  0  0  0  0  0  0
   33.2225   36.2553   56.6206 H   0  0  0  0  0  0  0  0  0  0  0  0
   34.6019   40.3904   54.6204 H   0  0  0  0  0  0  0  0  0  0  0  0
   35.1915   39.4155   52.1796 H   0  0  0  0  0  0  0  0  0  0  0  0
   34.7019   36.8419   52.2335 H   0  0  0  0  0  0  0  0  0  0  0  0
  1  2  1  0  0  0  0
  1 23  1  0  0  0  0
  1 24  1  0  0  0  0
  2 22  2  0  0  0  0
  2  3  1  0  0  0  0
  3  4  2  0  0  0  0
  4  5  1  0  0  0  0
  4 15  1  0  0  0  0
  5  6  2  0  0  0  0
  5  7  1  0  0  0  0
  7  8  1  0  0  0  0
  7 25  1  0  0  0  0
  8  9  1  0  0  0  0
  8 26  1  0  0  0  0
  8 27  1  0  0  0  0
  9 14  2  0  0  0  0
  9 10  1  0  0  0  0
 10 11  2  0  0  0  0
 10 28  1  0  0  0  0
 11 12  1  0  0  0  0
 11 29  1  0  0  0  0
 12 13  2  0  0  0  0
 12 30  1  0  0  0  0
 13 14  1  0  0  0  0
 14 31  1  0  0  0  0
 15 16  2  0  0  0  0
 15 32  1  0  0  0  0
 16 17  1  0  0  0  0
 16 22  1  0  0  0  0
 17 21  1  0  0  0  0
 17 18  2  0  0  0  0
 18 19  1  0  0  0  0
 18 33  1  0  0  0  0
 19 20  2  0  0  0  0
 19 34  1  0  0  0  0
 20 21  1  0  0  0  0
 20 35  1  0  0  0  0
M  END
$$$$
