CHEMBL179265      none
 OpenBabel11202420153D

 53 58  0  0  0  0  0  0  0  0999 V2000
   33.2496   40.9657   59.1578 N   0  0  0  0  0  0  0  0  0  0  0  0
   33.1666   39.6510   58.7625 C   0  0  0  0  0  0  0  0  0  0  0  0
   32.7385   38.7473   59.6140 N   0  0  0  0  0  0  0  0  0  0  0  0
   32.6392   37.4522   59.2763 C   0  0  0  0  0  0  0  0  0  0  0  0
   32.1507   36.4646   60.2676 C   0  0  0  0  0  0  0  0  0  0  0  0
   32.0409   35.1190   59.9184 C   0  0  0  0  0  0  0  0  0  0  0  0
   31.5909   34.1995   60.8447 C   0  0  0  0  0  0  0  0  0  0  0  0
   31.2378   34.6095   62.1163 C   0  0  0  0  0  0  0  0  0  0  0  0
   31.3385   35.9496   62.4719 C   0  0  0  0  0  0  0  0  0  0  0  0
   30.9797   36.3600   63.7582 N   0  0  0  0  0  0  0  0  0  0  0  0
   32.1414   36.8871   64.4856 C   0  0  0  0  0  0  0  0  0  0  0  0
   31.7455   37.1853   65.9338 C   0  0  0  0  0  0  0  0  0  0  0  0
   30.6013   38.2015   65.9446 C   0  0  0  0  0  0  0  0  0  0  0  0
   29.4227   37.6555   65.1357 C   0  0  0  0  0  0  0  0  0  0  0  0
   29.8897   37.3429   63.7120 C   0  0  0  0  0  0  0  0  0  0  0  0
   30.1844   38.4399   67.2984 O   0  0  0  0  0  0  0  0  0  0  0  0
   30.9044   39.6295   67.7029 C   0  0  0  0  0  0  0  0  0  0  0  0
   30.9195   40.4506   66.3892 C   0  0  0  0  0  0  0  0  0  0  0  0
   31.0481   39.4365   65.3718 O   0  0  0  0  0  0  0  0  0  0  0  0
   31.7946   36.8789   61.5494 C   0  0  0  0  0  0  0  0  0  0  0  0
   32.9909   37.0377   58.0044 C   0  0  0  0  0  0  0  0  0  0  0  0
   33.4504   38.0015   57.0888 C   0  0  0  0  0  0  0  0  0  0  0  0
   33.8571   37.9458   55.8302 N   0  0  0  0  0  0  0  0  0  0  0  0
   34.1942   39.1705   55.4138 C   0  0  0  0  0  0  0  0  0  0  0  0
   34.6947   39.5064   54.0642 C   0  0  0  0  0  0  0  0  0  0  0  0
   34.8942   38.6283   53.0459 C   0  0  0  0  0  0  0  0  0  0  0  0
   35.3721   39.3769   51.9521 C   0  0  0  0  0  0  0  0  0  0  0  0
   35.4478   40.6605   52.3553 C   0  0  0  0  0  0  0  0  0  0  0  0
   35.0379   40.7351   53.6317 O   0  0  0  0  0  0  0  0  0  0  0  0
   34.0154   40.0328   56.3986 N   0  0  0  0  0  0  0  0  0  0  0  0
   33.5293   39.3092   57.4950 N   0  0  0  0  0  0  0  0  0  0  0  0
   33.5644   41.6402   58.5357 H   0  0  0  0  0  0  0  0  0  0  0  0
   32.9936   41.2185   60.0586 H   0  0  0  0  0  0  0  0  0  0  0  0
   32.3116   34.7955   58.9242 H   0  0  0  0  0  0  0  0  0  0  0  0
   31.5105   33.1573   60.5733 H   0  0  0  0  0  0  0  0  0  0  0  0
   30.8825   33.8866   62.8357 H   0  0  0  0  0  0  0  0  0  0  0  0
   32.9433   36.1489   64.4730 H   0  0  0  0  0  0  0  0  0  0  0  0
   32.4844   37.8041   64.0066 H   0  0  0  0  0  0  0  0  0  0  0  0
   32.6021   37.5959   66.4682 H   0  0  0  0  0  0  0  0  0  0  0  0
   31.4200   36.2655   66.4196 H   0  0  0  0  0  0  0  0  0  0  0  0
   28.6276   38.4005   65.1027 H   0  0  0  0  0  0  0  0  0  0  0  0
   29.0491   36.7450   65.6045 H   0  0  0  0  0  0  0  0  0  0  0  0
   30.2451   38.2574   63.2373 H   0  0  0  0  0  0  0  0  0  0  0  0
   29.0575   36.9356   63.1379 H   0  0  0  0  0  0  0  0  0  0  0  0
   31.9175   39.3832   68.0206 H   0  0  0  0  0  0  0  0  0  0  0  0
   30.3689   40.1613   68.4892 H   0  0  0  0  0  0  0  0  0  0  0  0
   31.7735   41.1278   66.3680 H   0  0  0  0  0  0  0  0  0  0  0  0
   29.9881   41.0034   66.2665 H   0  0  0  0  0  0  0  0  0  0  0  0
   31.8732   37.9207   61.8235 H   0  0  0  0  0  0  0  0  0  0  0  0
   32.9153   35.9981   57.7213 H   0  0  0  0  0  0  0  0  0  0  0  0
   34.7185   37.5629   53.0701 H   0  0  0  0  0  0  0  0  0  0  0  0
   35.6323   38.9938   50.9765 H   0  0  0  0  0  0  0  0  0  0  0  0
   35.7832   41.4913   51.7522 H   0  0  0  0  0  0  0  0  0  0  0  0
  1  2  1  0  0  0  0
  1 32  1  0  0  0  0
  1 33  1  0  0  0  0
  2 31  1  0  0  0  0
  2  3  2  0  0  0  0
  3  4  1  0  0  0  0
  4  5  1  0  0  0  0
  4 21  2  0  0  0  0
  5 20  2  0  0  0  0
  5  6  1  0  0  0  0
  6  7  2  0  0  0  0
  6 34  1  0  0  0  0
  7  8  1  0  0  0  0
  7 35  1  0  0  0  0
  8  9  2  0  0  0  0
  8 36  1  0  0  0  0
  9 10  1  0  0  0  0
  9 20  1  0  0  0  0
 10 15  1  0  0  0  0
 10 11  1  0  0  0  0
 11 12  1  0  0  0  0
 11 37  1  0  0  0  0
 11 38  1  0  0  0  0
 12 13  1  0  0  0  0
 12 39  1  0  0  0  0
 12 40  1  0  0  0  0
 13 19  1  0  0  0  0
 13 14  1  0  0  0  0
 13 16  1  0  0  0  0
 14 15  1  0  0  0  0
 14 41  1  0  0  0  0
 14 42  1  0  0  0  0
 15 43  1  0  0  0  0
 15 44  1  0  0  0  0
 16 17  1  0  0  0  0
 17 18  1  0  0  0  0
 17 45  1  0  0  0  0
 17 46  1  0  0  0  0
 18 19  1  0  0  0  0
 18 47  1  0  0  0  0
 18 48  1  0  0  0  0
 20 49  1  0  0  0  0
 21 22  1  0  0  0  0
 21 50  1  0  0  0  0
 22 31  1  0  0  0  0
 22 23  2  0  0  0  0
 23 24  1  0  0  0  0
 24 25  1  0  0  0  0
 24 30  2  0  0  0  0
 25 29  1  0  0  0  0
 25 26  2  0  0  0  0
 26 27  1  0  0  0  0
 26 51  1  0  0  0  0
 27 28  2  0  0  0  0
 27 52  1  0  0  0  0
 28 29  1  0  0  0  0
 28 53  1  0  0  0  0
 30 31  1  0  0  0  0
M  END
$$$$
