CHEMBL113542      none
 OpenBabel11202420153D

 43 46  0  0  1  0  0  0  0  0999 V2000
   30.4933   39.5127   67.6662 C   0  0  0  0  0  0  0  0  0  0  0  0
   30.7436   38.4965   66.5502 C   0  0  2  0  0  0  0  0  0  0  0  0
   31.9279   37.6040   66.9283 C   0  0  0  0  0  0  0  0  0  0  0  0
   32.1586   36.5661   65.8276 C   0  0  0  0  0  0  0  0  0  0  0  0
   32.4934   37.2839   64.5163 C   0  0  0  0  0  0  0  0  0  0  0  0
   31.4275   38.2499   64.2171 N   0  0  0  0  0  0  0  0  0  0  0  0
   30.7970   38.2297   63.0262 C   0  0  0  0  0  0  0  0  0  0  0  0
   29.9165   39.0344   62.7907 O   0  0  0  0  0  0  0  0  0  0  0  0
   31.1755   37.2303   62.0074 C   0  0  0  0  0  0  0  0  0  0  0  0
   31.6374   37.6401   60.7770 C   0  0  0  0  0  0  0  0  0  0  0  0
   31.9927   36.7290   59.8372 N   0  0  0  0  0  0  0  0  0  0  0  0
   32.4881   36.8518   58.5307 N   0  0  0  0  0  0  0  0  0  0  0  0
   32.6562   35.6263   58.0648 C   0  0  0  0  0  0  0  0  0  0  0  0
   33.1636   35.2850   56.7197 C   0  0  0  0  0  0  0  0  0  0  0  0
   33.8737   34.1724   56.3937 C   0  0  0  0  0  0  0  0  0  0  0  0
   34.1445   34.2535   55.0137 C   0  0  0  0  0  0  0  0  0  0  0  0
   33.5993   35.4052   54.5710 C   0  0  0  0  0  0  0  0  0  0  0  0
   33.6574   36.0404   52.7908 Br  0  0  0  0  0  0  0  0  0  0  0  0
   33.0078   36.0254   55.6047 O   0  0  0  0  0  0  0  0  0  0  0  0
   32.2961   34.7454   59.0009 N   0  0  0  0  0  0  0  0  0  0  0  0
   31.8894   35.3888   60.0865 C   0  0  0  0  0  0  0  0  0  0  0  0
   31.4123   34.9374   61.3402 C   0  0  0  0  0  0  0  0  0  0  0  0
   31.3049   33.5691   61.6016 N   0  0  0  0  0  0  0  0  0  0  0  0
   31.0588   35.8487   62.2912 C   0  0  0  0  0  0  0  0  0  0  0  0
   31.0624   39.2362   65.2471 C   0  0  0  0  0  0  0  0  0  0  0  0
   31.3824   40.1281   67.8034 H   0  0  0  0  0  0  0  0  0  0  0  0
   29.6497   40.1480   67.3964 H   0  0  0  0  0  0  0  0  0  0  0  0
   30.2693   38.9859   68.5938 H   0  0  0  0  0  0  0  0  0  0  0  0
   29.8544   37.8815   66.4112 H   0  0  0  0  0  0  0  0  0  0  0  0
   31.7137   37.0952   67.8682 H   0  0  0  0  0  0  0  0  0  0  0  0
   32.8221   38.2168   67.0427 H   0  0  0  0  0  0  0  0  0  0  0  0
   31.2561   35.9693   65.6955 H   0  0  0  0  0  0  0  0  0  0  0  0
   32.9870   35.9155   66.1081 H   0  0  0  0  0  0  0  0  0  0  0  0
   33.4435   37.8082   64.6191 H   0  0  0  0  0  0  0  0  0  0  0  0
   32.5637   36.5555   63.7086 H   0  0  0  0  0  0  0  0  0  0  0  0
   31.7216   38.6948   60.5601 H   0  0  0  0  0  0  0  0  0  0  0  0
   34.1707   33.3785   57.0630 H   0  0  0  0  0  0  0  0  0  0  0  0
   34.6896   33.5323   54.4227 H   0  0  0  0  0  0  0  0  0  0  0  0
   30.9777   33.2640   62.4623 H   0  0  0  0  0  0  0  0  0  0  0  0
   31.5573   32.9243   60.9225 H   0  0  0  0  0  0  0  0  0  0  0  0
   30.6928   35.5190   63.2524 H   0  0  0  0  0  0  0  0  0  0  0  0
   30.1859   39.7962   64.9210 H   0  0  0  0  0  0  0  0  0  0  0  0
   31.8941   39.9216   65.4101 H   0  0  0  0  0  0  0  0  0  0  0  0
  1  2  1  0  0  0  0
  1 26  1  0  0  0  0
  1 27  1  0  0  0  0
  1 28  1  0  0  0  0
  2 25  1  0  0  0  0
  2  3  1  0  0  0  0
  2 29  1  6  0  0  0
  3  4  1  0  0  0  0
  3 30  1  0  0  0  0
  3 31  1  0  0  0  0
  4  5  1  0  0  0  0
  4 32  1  0  0  0  0
  4 33  1  0  0  0  0
  5  6  1  0  0  0  0
  5 34  1  0  0  0  0
  5 35  1  0  0  0  0
  6  7  1  0  0  0  0
  6 25  1  0  0  0  0
  7  8  2  0  0  0  0
  7  9  1  0  0  0  0
  9 24  1  0  0  0  0
  9 10  2  0  0  0  0
 10 11  1  0  0  0  0
 10 36  1  0  0  0  0
 11 21  1  0  0  0  0
 11 12  1  0  0  0  0
 12 13  2  0  0  0  0
 13 14  1  0  0  0  0
 13 20  1  0  0  0  0
 14 19  1  0  0  0  0
 14 15  2  0  0  0  0
 15 16  1  0  0  0  0
 15 37  1  0  0  0  0
 16 17  2  0  0  0  0
 16 38  1  0  0  0  0
 17 18  1  0  0  0  0
 17 19  1  0  0  0  0
 20 21  2  0  0  0  0
 21 22  1  0  0  0  0
 22 23  1  0  0  0  0
 22 24  2  0  0  0  0
 23 39  1  0  0  0  0
 23 40  1  0  0  0  0
 24 41  1  0  0  0  0
 25 42  1  0  0  0  0
 25 43  1  0  0  0  0
M  END
$$$$
