CHEMBL491317      none
 OpenBabel11202420153D

 46 49  0  0  0  0  0  0  0  0999 V2000
   33.8647   38.9590   56.7585 C   0  0  0  0  0  0  0  0  0  0  0  0
   33.5249   39.3021   58.1415 N   0  0  0  0  0  0  0  0  0  0  0  0
   33.0361   38.3275   58.9975 C   0  0  0  0  0  0  0  0  0  0  0  0
   32.7351   38.6598   60.2442 N   0  0  0  0  0  0  0  0  0  0  0  0
   32.2647   37.7598   61.0968 C   0  0  0  0  0  0  0  0  0  0  0  0
   32.0909   36.4572   60.6633 C   0  0  0  0  0  0  0  0  0  0  0  0
   32.4238   36.1372   59.3404 C   0  0  0  0  0  0  0  0  0  0  0  0
   32.8843   37.0918   58.5442 N   0  0  0  0  0  0  0  0  0  0  0  0
   32.1522   34.7904   59.1749 N   0  0  0  0  0  0  0  0  0  0  0  0
   32.3392   34.0575   57.9952 C   0  0  0  0  0  0  0  0  0  0  0  0
   31.2590   33.4315   57.3872 C   0  0  0  0  0  0  0  0  0  0  0  0
   31.4434   32.7085   56.2243 C   0  0  0  0  0  0  0  0  0  0  0  0
   32.7030   32.6016   55.6666 C   0  0  0  0  0  0  0  0  0  0  0  0
   33.7852   33.2301   56.2670 C   0  0  0  0  0  0  0  0  0  0  0  0
   35.0227   33.1290   55.7143 O   0  0  0  0  0  0  0  0  0  0  0  0
   35.1368   32.3600   54.5153 C   0  0  0  0  0  0  0  0  0  0  0  0
   33.6040   33.9561   57.4336 C   0  0  0  0  0  0  0  0  0  0  0  0
   31.6835   34.3003   60.3383 C   0  0  0  0  0  0  0  0  0  0  0  0
   31.3539   33.1447   60.5294 O   0  0  0  0  0  0  0  0  0  0  0  0
   31.6344   35.2832   61.2587 N   0  0  0  0  0  0  0  0  0  0  0  0
   31.1805   35.1419   62.6444 C   0  0  0  0  0  0  0  0  0  0  0  0
   30.2679   36.2891   62.9937 C   0  0  0  0  0  0  0  0  0  0  0  0
   30.4152   36.9484   64.2019 C   0  0  0  0  0  0  0  0  0  0  0  0
   31.3774   36.5636   65.0686 F   0  0  0  0  0  0  0  0  0  0  0  0
   29.5792   38.0055   64.5196 C   0  0  0  0  0  0  0  0  0  0  0  0
   28.5909   38.3954   63.6357 C   0  0  0  0  0  0  0  0  0  0  0  0
   28.4398   37.7349   62.4311 C   0  0  0  0  0  0  0  0  0  0  0  0
   29.2780   36.6808   62.1090 C   0  0  0  0  0  0  0  0  0  0  0  0
   29.1295   36.0348   60.9319 F   0  0  0  0  0  0  0  0  0  0  0  0
   34.2297   39.8470   56.2429 H   0  0  0  0  0  0  0  0  0  0  0  0
   34.6395   38.1922   56.7543 H   0  0  0  0  0  0  0  0  0  0  0  0
   32.9777   38.5819   56.2492 H   0  0  0  0  0  0  0  0  0  0  0  0
   33.6419   40.2114   58.4584 H   0  0  0  0  0  0  0  0  0  0  0  0
   32.0214   38.0385   62.1114 H   0  0  0  0  0  0  0  0  0  0  0  0
   30.2742   33.5101   57.8235 H   0  0  0  0  0  0  0  0  0  0  0  0
   30.6021   32.2222   55.7528 H   0  0  0  0  0  0  0  0  0  0  0  0
   32.8449   32.0320   54.7602 H   0  0  0  0  0  0  0  0  0  0  0  0
   34.8178   31.3359   54.7088 H   0  0  0  0  0  0  0  0  0  0  0  0
   34.5055   32.7973   53.7418 H   0  0  0  0  0  0  0  0  0  0  0  0
   36.1743   32.3604   54.1809 H   0  0  0  0  0  0  0  0  0  0  0  0
   34.4457   34.4419   57.9048 H   0  0  0  0  0  0  0  0  0  0  0  0
   30.6410   34.2015   62.7559 H   0  0  0  0  0  0  0  0  0  0  0  0
   32.0426   35.1474   63.3114 H   0  0  0  0  0  0  0  0  0  0  0  0
   29.6966   38.5226   65.4605 H   0  0  0  0  0  0  0  0  0  0  0  0
   27.9364   39.2172   63.8863 H   0  0  0  0  0  0  0  0  0  0  0  0
   27.6675   38.0407   61.7410 H   0  0  0  0  0  0  0  0  0  0  0  0
  1  2  1  0  0  0  0
  1 30  1  0  0  0  0
  1 31  1  0  0  0  0
  1 32  1  0  0  0  0
  2  3  1  0  0  0  0
  2 33  1  0  0  0  0
  3  8  2  0  0  0  0
  3  4  1  0  0  0  0
  4  5  2  0  0  0  0
  5  6  1  0  0  0  0
  5 34  1  0  0  0  0
  6 20  1  0  0  0  0
  6  7  2  0  0  0  0
  7  8  1  0  0  0  0
  7  9  1  0  0  0  0
  9 10  1  0  0  0  0
  9 18  1  0  0  0  0
 10 17  2  0  0  0  0
 10 11  1  0  0  0  0
 11 12  2  0  0  0  0
 11 35  1  0  0  0  0
 12 13  1  0  0  0  0
 12 36  1  0  0  0  0
 13 14  2  0  0  0  0
 13 37  1  0  0  0  0
 14 15  1  0  0  0  0
 14 17  1  0  0  0  0
 15 16  1  0  0  0  0
 16 38  1  0  0  0  0
 16 39  1  0  0  0  0
 16 40  1  0  0  0  0
 17 41  1  0  0  0  0
 18 19  2  0  0  0  0
 18 20  1  0  0  0  0
 20 21  1  0  0  0  0
 21 22  1  0  0  0  0
 21 42  1  0  0  0  0
 21 43  1  0  0  0  0
 22 28  2  0  0  0  0
 22 23  1  0  0  0  0
 23 24  1  0  0  0  0
 23 25  2  0  0  0  0
 25 26  1  0  0  0  0
 25 44  1  0  0  0  0
 26 27  2  0  0  0  0
 26 45  1  0  0  0  0
 27 28  1  0  0  0  0
 27 46  1  0  0  0  0
 28 29  1  0  0  0  0
M  END
$$$$
