CHEMBL601628      none
 OpenBabel11202420153D

 44 46  0  0  0  0  0  0  0  0999 V2000
   32.7066   36.3878   52.1494 C   0  0  0  0  0  0  0  0  0  0  0  0
   33.2898   35.3859   53.1479 C   0  0  0  0  0  0  0  0  0  0  0  0
   32.7457   35.6841   54.5465 C   0  0  0  0  0  0  0  0  0  0  0  0
   33.3288   34.6821   55.5450 C   0  0  0  0  0  0  0  0  0  0  0  0
   32.8079   34.9678   56.8841 N   0  0  0  0  0  0  0  0  0  0  0  0
   33.1868   34.2080   57.9308 C   0  0  0  0  0  0  0  0  0  0  0  0
   33.9609   33.2856   57.7636 O   0  0  0  0  0  0  0  0  0  0  0  0
   32.6615   34.4960   59.2810 C   0  0  0  0  0  0  0  0  0  0  0  0
   32.5038   33.4641   60.1977 C   0  0  0  0  0  0  0  0  0  0  0  0
   32.0079   33.7252   61.4757 C   0  0  0  0  0  0  0  0  0  0  0  0
   31.8541   32.6884   62.3851 N   0  0  0  0  0  0  0  0  0  0  0  0
   31.6657   35.0306   61.8400 C   0  0  0  0  0  0  0  0  0  0  0  0
   31.1386   35.3164   63.1884 C   0  0  0  0  0  0  0  0  0  0  0  0
   31.2264   34.4861   64.0720 O   0  0  0  0  0  0  0  0  0  0  0  0
   30.5018   36.6249   63.4518 C   0  0  0  0  0  0  0  0  0  0  0  0
   29.7476   36.8269   64.6030 C   0  0  0  0  0  0  0  0  0  0  0  0
   29.1590   38.0583   64.8322 C   0  0  0  0  0  0  0  0  0  0  0  0
   29.3149   39.0900   63.9244 C   0  0  0  0  0  0  0  0  0  0  0  0
   30.0626   38.9060   62.7742 C   0  0  0  0  0  0  0  0  0  0  0  0
   30.6607   37.6749   62.5281 C   0  0  0  0  0  0  0  0  0  0  0  0
   31.4617   37.4576   61.3038 C   0  0  0  0  0  0  0  0  0  0  0  0
   31.8170   38.4026   60.6256 O   0  0  0  0  0  0  0  0  0  0  0  0
   31.8236   36.0839   60.9149 C   0  0  0  0  0  0  0  0  0  0  0  0
   32.3212   35.8168   59.6357 C   0  0  0  0  0  0  0  0  0  0  0  0
   32.4781   36.8423   58.7243 N   0  0  0  0  0  0  0  0  0  0  0  0
   31.6199   36.3031   52.1423 H   0  0  0  0  0  0  0  0  0  0  0  0
   32.9904   37.3989   52.4415 H   0  0  0  0  0  0  0  0  0  0  0  0
   33.0941   36.1752   51.1531 H   0  0  0  0  0  0  0  0  0  0  0  0
   34.3763   35.4705   53.1551 H   0  0  0  0  0  0  0  0  0  0  0  0
   33.0060   34.3747   52.8557 H   0  0  0  0  0  0  0  0  0  0  0  0
   31.6590   35.5994   54.5393 H   0  0  0  0  0  0  0  0  0  0  0  0
   33.0294   36.6952   54.8386 H   0  0  0  0  0  0  0  0  0  0  0  0
   34.4155   34.7669   55.5521 H   0  0  0  0  0  0  0  0  0  0  0  0
   33.0451   33.6711   55.2528 H   0  0  0  0  0  0  0  0  0  0  0  0
   32.1903   35.7037   57.0175 H   0  0  0  0  0  0  0  0  0  0  0  0
   32.7670   32.4542   59.9199 H   0  0  0  0  0  0  0  0  0  0  0  0
   31.2730   32.7998   63.1538 H   0  0  0  0  0  0  0  0  0  0  0  0
   32.3276   31.8524   62.2521 H   0  0  0  0  0  0  0  0  0  0  0  0
   29.6213   36.0252   65.3155 H   0  0  0  0  0  0  0  0  0  0  0  0
   28.5732   38.2146   65.7259 H   0  0  0  0  0  0  0  0  0  0  0  0
   28.8506   40.0463   64.1147 H   0  0  0  0  0  0  0  0  0  0  0  0
   30.1848   39.7175   62.0721 H   0  0  0  0  0  0  0  0  0  0  0  0
   33.1968   36.8073   58.0738 H   0  0  0  0  0  0  0  0  0  0  0  0
   31.8696   37.5976   58.7346 H   0  0  0  0  0  0  0  0  0  0  0  0
  1  2  1  0  0  0  0
  1 26  1  0  0  0  0
  1 27  1  0  0  0  0
  1 28  1  0  0  0  0
  2  3  1  0  0  0  0
  2 29  1  0  0  0  0
  2 30  1  0  0  0  0
  3  4  1  0  0  0  0
  3 31  1  0  0  0  0
  3 32  1  0  0  0  0
  4  5  1  0  0  0  0
  4 33  1  0  0  0  0
  4 34  1  0  0  0  0
  5  6  1  0  0  0  0
  5 35  1  0  0  0  0
  6  7  2  0  0  0  0
  6  8  1  0  0  0  0
  8 24  2  0  0  0  0
  8  9  1  0  0  0  0
  9 10  2  0  0  0  0
  9 36  1  0  0  0  0
 10 11  1  0  0  0  0
 10 12  1  0  0  0  0
 11 37  1  0  0  0  0
 11 38  1  0  0  0  0
 12 23  2  0  0  0  0
 12 13  1  0  0  0  0
 13 14  2  0  0  0  0
 13 15  1  0  0  0  0
 15 20  2  0  0  0  0
 15 16  1  0  0  0  0
 16 17  2  0  0  0  0
 16 39  1  0  0  0  0
 17 18  1  0  0  0  0
 17 40  1  0  0  0  0
 18 19  2  0  0  0  0
 18 41  1  0  0  0  0
 19 20  1  0  0  0  0
 19 42  1  0  0  0  0
 20 21  1  0  0  0  0
 21 22  2  0  0  0  0
 21 23  1  0  0  0  0
 23 24  1  0  0  0  0
 24 25  1  0  0  0  0
 25 43  1  0  0  0  0
 25 44  1  0  0  0  0
M  END
$$$$
