CHEMBL591999      none
 OpenBabel11202420153D

 54 56  0  0  1  0  0  0  0  0999 V2000
   35.6672   40.3868   51.4464 C   0  0  0  0  0  0  0  0  0  0  0  0
   35.2845   40.8507   52.8532 C   0  0  0  0  0  0  0  0  0  0  0  0
   34.8238   39.6481   53.6792 C   0  0  0  0  0  0  0  0  0  0  0  0
   34.4412   40.1121   55.0861 C   0  0  0  0  0  0  0  0  0  0  0  0
   33.9980   38.9550   55.8807 C   0  0  0  0  0  0  0  0  0  0  0  0
   33.6444   38.0322   56.5146 C   0  0  0  0  0  0  0  0  0  0  0  0
   33.2132   36.9066   57.2877 C   0  0  0  0  0  0  0  0  0  0  0  0
   33.2050   35.7030   56.7213 N   0  0  0  0  0  0  0  0  0  0  0  0
   32.8139   34.6302   57.3971 C   0  0  0  0  0  0  0  0  0  0  0  0
   32.8083   33.3819   56.7995 N   0  0  0  0  0  0  0  0  0  0  0  0
   32.4047   34.7886   58.7335 C   0  0  0  0  0  0  0  0  0  0  0  0
   31.9572   33.9479   59.6961 N   0  0  0  0  0  0  0  0  0  0  0  0
   31.7178   34.6215   60.7838 C   0  0  0  0  0  0  0  0  0  0  0  0
   31.9883   35.9426   60.5830 N   0  0  0  0  0  0  0  0  0  0  0  0
   31.8403   37.0173   61.5676 C   0  0  2  0  0  0  0  0  0  0  0  0
   32.1305   37.9709   61.1265 H   0  0  0  0  0  0  0  0  0  0  0  0
   32.7101   36.7219   62.8070 C   0  0  0  0  0  0  0  0  0  0  0  0
   31.8569   37.2244   63.9982 C   0  0  2  0  0  0  0  0  0  0  0  0
   31.9441   38.3055   64.1068 H   0  0  0  0  0  0  0  0  0  0  0  0
   32.2429   36.5439   65.2367 N   0  0  0  0  0  0  0  0  0  0  0  0
   32.6372   37.2632   66.3061 C   0  0  0  0  0  0  0  0  0  0  0  0
   32.6726   38.4738   66.2430 O   0  0  0  0  0  0  0  0  0  0  0  0
   33.0341   36.5632   67.5803 C   0  0  0  0  0  0  0  0  0  0  0  0
   31.8519   35.7438   68.1015 C   0  0  0  0  0  0  0  0  0  0  0  0
   30.4191   36.8289   63.5796 C   0  0  1  0  0  0  0  0  0  0  0  0
   30.2356   35.7759   63.7933 H   0  0  0  0  0  0  0  0  0  0  0  0
   29.4598   37.6507   64.2477 O   0  0  0  0  0  0  0  0  0  0  0  0
   30.3836   37.0854   62.0588 C   0  0  1  0  0  0  0  0  0  0  0  0
   29.7868   36.3186   61.5647 H   0  0  0  0  0  0  0  0  0  0  0  0
   29.8373   38.3787   61.7930 O   0  0  0  0  0  0  0  0  0  0  0  0
   32.4304   36.0798   59.2908 C   0  0  0  0  0  0  0  0  0  0  0  0
   32.8359   37.0990   58.5442 N   0  0  0  0  0  0  0  0  0  0  0  0
   35.9954   41.2435   50.8580 H   0  0  0  0  0  0  0  0  0  0  0  0
   36.4761   39.6591   51.5112 H   0  0  0  0  0  0  0  0  0  0  0  0
   34.8026   39.9269   50.9677 H   0  0  0  0  0  0  0  0  0  0  0  0
   34.4756   41.5784   52.7884 H   0  0  0  0  0  0  0  0  0  0  0  0
   36.1492   41.3105   53.3320 H   0  0  0  0  0  0  0  0  0  0  0  0
   35.6329   38.9205   53.7441 H   0  0  0  0  0  0  0  0  0  0  0  0
   33.9592   39.1884   53.2006 H   0  0  0  0  0  0  0  0  0  0  0  0
   33.6321   40.8397   55.0212 H   0  0  0  0  0  0  0  0  0  0  0  0
   35.3058   40.5719   55.5647 H   0  0  0  0  0  0  0  0  0  0  0  0
   33.0922   33.2844   55.8771 H   0  0  0  0  0  0  0  0  0  0  0  0
   32.5203   32.6044   57.3030 H   0  0  0  0  0  0  0  0  0  0  0  0
   31.3553   34.1969   61.7083 H   0  0  0  0  0  0  0  0  0  0  0  0
   33.6502   37.2707   62.7528 H   0  0  0  0  0  0  0  0  0  0  0  0
   32.8985   35.6521   62.8972 H   0  0  0  0  0  0  0  0  0  0  0  0
   32.2146   35.5756   65.2871 H   0  0  0  0  0  0  0  0  0  0  0  0
   33.8769   35.9005   67.3835 H   0  0  0  0  0  0  0  0  0  0  0  0
   33.3209   37.3034   68.3274 H   0  0  0  0  0  0  0  0  0  0  0  0
   31.5653   35.0036   67.3546 H   0  0  0  0  0  0  0  0  0  0  0  0
   32.1390   35.2376   69.0232 H   0  0  0  0  0  0  0  0  0  0  0  0
   31.0092   36.4066   68.2984 H   0  0  0  0  0  0  0  0  0  0  0  0
   29.4931   37.5895   65.2123 H   0  0  0  0  0  0  0  0  0  0  0  0
   30.3123   39.1024   62.2237 H   0  0  0  0  0  0  0  0  0  0  0  0
  1  2  1  0  0  0  0
  1 33  1  0  0  0  0
  1 34  1  0  0  0  0
  1 35  1  0  0  0  0
  2  3  1  0  0  0  0
  2 36  1  0  0  0  0
  2 37  1  0  0  0  0
  3  4  1  0  0  0  0
  3 38  1  0  0  0  0
  3 39  1  0  0  0  0
  4  5  1  0  0  0  0
  4 40  1  0  0  0  0
  4 41  1  0  0  0  0
  5  6  3  0  0  0  0
  6  7  1  0  0  0  0
  7 32  2  0  0  0  0
  7  8  1  0  0  0  0
  8  9  2  0  0  0  0
  9 10  1  0  0  0  0
  9 11  1  0  0  0  0
 10 42  1  0  0  0  0
 10 43  1  0  0  0  0
 11 31  2  0  0  0  0
 11 12  1  0  0  0  0
 12 13  2  0  0  0  0
 13 14  1  0  0  0  0
 13 44  1  0  0  0  0
 14 15  1  0  0  0  0
 14 31  1  0  0  0  0
 15 16  1  6  0  0  0
 15 28  1  0  0  0  0
 15 17  1  0  0  0  0
 17 18  1  0  0  0  0
 17 45  1  0  0  0  0
 17 46  1  0  0  0  0
 18 19  1  1  0  0  0
 18 20  1  0  0  0  0
 18 25  1  0  0  0  0
 20 21  1  0  0  0  0
 20 47  1  0  0  0  0
 21 22  2  0  0  0  0
 21 23  1  0  0  0  0
 23 24  1  0  0  0  0
 23 48  1  0  0  0  0
 23 49  1  0  0  0  0
 24 50  1  0  0  0  0
 24 51  1  0  0  0  0
 24 52  1  0  0  0  0
 25 26  1  1  0  0  0
 25 27  1  0  0  0  0
 25 28  1  0  0  0  0
 27 53  1  0  0  0  0
 28 29  1  6  0  0  0
 28 30  1  0  0  0  0
 30 54  1  0  0  0  0
 31 32  1  0  0  0  0
M  END
$$$$
