CHEMBL564473      none
 OpenBabel11202420153D

 42 44  0  0  0  0  0  0  0  0999 V2000
   29.1761   32.1141   64.3924 C   0  0  0  0  0  0  0  0  0  0  0  0
   29.0432   33.2084   65.3017 O   0  0  0  0  0  0  0  0  0  0  0  0
   28.7429   34.4550   64.6711 C   0  0  0  0  0  0  0  0  0  0  0  0
   30.0071   35.0500   64.1066 C   0  0  0  0  0  0  0  0  0  0  0  0
   30.7746   35.8913   64.8894 C   0  0  0  0  0  0  0  0  0  0  0  0
   31.9361   36.4338   64.3606 C   0  0  0  0  0  0  0  0  0  0  0  0
   32.2862   36.1033   63.0604 C   0  0  0  0  0  0  0  0  0  0  0  0
   31.4660   35.2588   62.3361 C   0  0  0  0  0  0  0  0  0  0  0  0
   31.8337   34.8972   60.9201 C   0  0  0  0  0  0  0  0  0  0  0  0
   32.2511   36.1034   60.2009 N   0  0  0  0  0  0  0  0  0  0  0  0
   32.6276   36.0215   58.9094 C   0  0  0  0  0  0  0  0  0  0  0  0
   32.6210   34.9475   58.3417 O   0  0  0  0  0  0  0  0  0  0  0  0
   33.0504   37.2435   58.1808 C   0  0  0  0  0  0  0  0  0  0  0  0
   33.4411   37.1696   56.8481 C   0  0  0  0  0  0  0  0  0  0  0  0
   33.8325   38.3527   56.2033 C   0  0  0  0  0  0  0  0  0  0  0  0
   34.2565   38.3307   54.7908 C   0  0  0  0  0  0  0  0  0  0  0  0
   34.6620   39.4062   54.0611 C   0  0  0  0  0  0  0  0  0  0  0  0
   34.9706   38.9294   52.7737 C   0  0  0  0  0  0  0  0  0  0  0  0
   34.7413   37.6001   52.7787 C   0  0  0  0  0  0  0  0  0  0  0  0
   34.3155   37.2416   53.9994 O   0  0  0  0  0  0  0  0  0  0  0  0
   33.8158   39.4962   56.8868 N   0  0  0  0  0  0  0  0  0  0  0  0
   33.4366   39.5220   58.1553 C   0  0  0  0  0  0  0  0  0  0  0  0
   33.4332   40.7300   58.8316 N   0  0  0  0  0  0  0  0  0  0  0  0
   33.0611   38.4265   58.7950 N   0  0  0  0  0  0  0  0  0  0  0  0
   30.3685   34.7616   62.8716 N   0  0  0  0  0  0  0  0  0  0  0  0
   29.9830   32.3216   63.6894 H   0  0  0  0  0  0  0  0  0  0  0  0
   29.4038   31.2049   64.9487 H   0  0  0  0  0  0  0  0  0  0  0  0
   28.2428   31.9810   63.8451 H   0  0  0  0  0  0  0  0  0  0  0  0
   28.3151   35.1391   65.4040 H   0  0  0  0  0  0  0  0  0  0  0  0
   28.0270   34.2915   63.8655 H   0  0  0  0  0  0  0  0  0  0  0  0
   30.4734   36.1240   65.9002 H   0  0  0  0  0  0  0  0  0  0  0  0
   32.5558   37.0940   64.9491 H   0  0  0  0  0  0  0  0  0  0  0  0
   33.1864   36.5037   62.6180 H   0  0  0  0  0  0  0  0  0  0  0  0
   30.9700   34.4575   60.4213 H   0  0  0  0  0  0  0  0  0  0  0  0
   32.6527   34.1782   60.9296 H   0  0  0  0  0  0  0  0  0  0  0  0
   32.2565   36.9609   60.6543 H   0  0  0  0  0  0  0  0  0  0  0  0
   33.4434   36.2258   56.3231 H   0  0  0  0  0  0  0  0  0  0  0  0
   34.7336   40.4278   54.4043 H   0  0  0  0  0  0  0  0  0  0  0  0
   35.3239   39.5168   51.9391 H   0  0  0  0  0  0  0  0  0  0  0  0
   34.8815   36.9340   51.9401 H   0  0  0  0  0  0  0  0  0  0  0  0
   33.1582   40.7647   59.7613 H   0  0  0  0  0  0  0  0  0  0  0  0
   33.7058   41.5418   58.3759 H   0  0  0  0  0  0  0  0  0  0  0  0
  1  2  1  0  0  0  0
  1 26  1  0  0  0  0
  1 27  1  0  0  0  0
  1 28  1  0  0  0  0
  2  3  1  0  0  0  0
  3  4  1  0  0  0  0
  3 29  1  0  0  0  0
  3 30  1  0  0  0  0
  4 25  2  0  0  0  0
  4  5  1  0  0  0  0
  5  6  2  0  0  0  0
  5 31  1  0  0  0  0
  6  7  1  0  0  0  0
  6 32  1  0  0  0  0
  7  8  2  0  0  0  0
  7 33  1  0  0  0  0
  8  9  1  0  0  0  0
  8 25  1  0  0  0  0
  9 10  1  0  0  0  0
  9 34  1  0  0  0  0
  9 35  1  0  0  0  0
 10 11  1  0  0  0  0
 10 36  1  0  0  0  0
 11 12  2  0  0  0  0
 11 13  1  0  0  0  0
 13 24  2  0  0  0  0
 13 14  1  0  0  0  0
 14 15  2  0  0  0  0
 14 37  1  0  0  0  0
 15 16  1  0  0  0  0
 15 21  1  0  0  0  0
 16 20  1  0  0  0  0
 16 17  2  0  0  0  0
 17 18  1  0  0  0  0
 17 38  1  0  0  0  0
 18 19  2  0  0  0  0
 18 39  1  0  0  0  0
 19 20  1  0  0  0  0
 19 40  1  0  0  0  0
 21 22  2  0  0  0  0
 22 23  1  0  0  0  0
 22 24  1  0  0  0  0
 23 41  1  0  0  0  0
 23 42  1  0  0  0  0
M  END
$$$$
