CHEMBL330982      none
 OpenBabel11202420153D

 36 40  0  0  0  0  0  0  0  0999 V2000
   31.4297   36.8189   61.3216 C   0  0  0  0  0  0  0  0  0  0  0  0
   31.6748   35.6965   60.5501 C   0  0  0  0  0  0  0  0  0  0  0  0
   32.2263   35.8271   59.2927 C   0  0  0  0  0  0  0  0  0  0  0  0
   32.5376   37.0963   58.7985 C   0  0  0  0  0  0  0  0  0  0  0  0
   33.1280   37.2440   57.4538 C   0  0  0  0  0  0  0  0  0  0  0  0
   33.4724   38.3840   56.8871 N   0  0  0  0  0  0  0  0  0  0  0  0
   33.9732   38.1585   55.6698 C   0  0  0  0  0  0  0  0  0  0  0  0
   34.4684   38.9984   54.6579 C   0  0  0  0  0  0  0  0  0  0  0  0
   34.6292   40.3228   54.5191 N   0  0  0  0  0  0  0  0  0  0  0  0
   35.1519   40.5548   53.3327 C   0  0  0  0  0  0  0  0  0  0  0  0
   35.3416   39.4163   52.6812 N   0  0  0  0  0  0  0  0  0  0  0  0
   34.9353   38.4087   53.4542 C   0  0  0  0  0  0  0  0  0  0  0  0
   34.8934   37.0734   53.3112 N   0  0  0  0  0  0  0  0  0  0  0  0
   34.4284   36.3006   54.2644 C   0  0  0  0  0  0  0  0  0  0  0  0
   34.4049   34.8377   54.0541 C   0  0  0  0  0  0  0  0  0  0  0  0
   35.1137   33.9947   54.9116 C   0  0  0  0  0  0  0  0  0  0  0  0
   35.0872   32.6302   54.7101 C   0  0  0  0  0  0  0  0  0  0  0  0
   34.3603   32.0969   53.6606 C   0  0  0  0  0  0  0  0  0  0  0  0
   33.6554   32.9268   52.8069 C   0  0  0  0  0  0  0  0  0  0  0  0
   33.6735   34.2931   52.9973 C   0  0  0  0  0  0  0  0  0  0  0  0
   33.9607   36.8079   55.4418 N   0  0  0  0  0  0  0  0  0  0  0  0
   33.4191   36.2187   56.5933 N   0  0  0  0  0  0  0  0  0  0  0  0
   32.2926   38.2243   59.5853 C   0  0  0  0  0  0  0  0  0  0  0  0
   31.7358   38.0791   60.8388 C   0  0  0  0  0  0  0  0  0  0  0  0
   30.9976   36.7108   62.3055 H   0  0  0  0  0  0  0  0  0  0  0  0
   31.4333   34.7162   60.9333 H   0  0  0  0  0  0  0  0  0  0  0  0
   32.4168   34.9504   58.6915 H   0  0  0  0  0  0  0  0  0  0  0  0
   35.3919   41.5340   52.9455 H   0  0  0  0  0  0  0  0  0  0  0  0
   35.6813   34.4098   55.7314 H   0  0  0  0  0  0  0  0  0  0  0  0
   35.6388   31.9772   55.3702 H   0  0  0  0  0  0  0  0  0  0  0  0
   34.3428   31.0280   53.5072 H   0  0  0  0  0  0  0  0  0  0  0  0
   33.0898   32.5041   51.9897 H   0  0  0  0  0  0  0  0  0  0  0  0
   33.1226   34.9398   52.3304 H   0  0  0  0  0  0  0  0  0  0  0  0
   33.2782   35.2718   56.7497 H   0  0  0  0  0  0  0  0  0  0  0  0
   32.5350   39.2082   59.2113 H   0  0  0  0  0  0  0  0  0  0  0  0
   31.5422   38.9507   61.4465 H   0  0  0  0  0  0  0  0  0  0  0  0
  1 24  2  0  0  0  0
  1  2  1  0  0  0  0
  1 25  1  0  0  0  0
  2  3  2  0  0  0  0
  2 26  1  0  0  0  0
  3  4  1  0  0  0  0
  3 27  1  0  0  0  0
  4  5  1  0  0  0  0
  4 23  2  0  0  0  0
  5 22  1  0  0  0  0
  5  6  2  0  0  0  0
  6  7  1  0  0  0  0
  7 21  1  0  0  0  0
  7  8  2  0  0  0  0
  8 12  1  0  0  0  0
  8  9  1  0  0  0  0
  9 10  2  0  0  0  0
 10 11  1  0  0  0  0
 10 28  1  0  0  0  0
 11 12  2  0  0  0  0
 12 13  1  0  0  0  0
 13 14  2  0  0  0  0
 14 15  1  0  0  0  0
 14 21  1  0  0  0  0
 15 20  2  0  0  0  0
 15 16  1  0  0  0  0
 16 17  2  0  0  0  0
 16 29  1  0  0  0  0
 17 18  1  0  0  0  0
 17 30  1  0  0  0  0
 18 19  2  0  0  0  0
 18 31  1  0  0  0  0
 19 20  1  0  0  0  0
 19 32  1  0  0  0  0
 20 33  1  0  0  0  0
 21 22  1  0  0  0  0
 22 34  1  0  0  0  0
 23 24  1  0  0  0  0
 23 35  1  0  0  0  0
 24 36  1  0  0  0  0
M  END
$$$$
