CHEMBL248298      none
 OpenBabel11202420153D

 34 37  0  0  0  0  0  0  0  0999 V2000
   31.0581   37.5378   63.3461 C   0  0  0  0  0  0  0  0  0  0  0  0
   31.5843   37.6149   61.9114 C   0  0  0  0  0  0  0  0  0  0  0  0
   31.5138   36.2289   61.2672 C   0  0  0  0  0  0  0  0  0  0  0  0
   32.0176   36.3027   59.8935 N   0  0  0  0  0  0  0  0  0  0  0  0
   32.1078   35.2677   59.0111 C   0  0  0  0  0  0  0  0  0  0  0  0
   32.6006   35.6928   57.8826 N   0  0  0  0  0  0  0  0  0  0  0  0
   32.8540   37.0174   57.9741 C   0  0  0  0  0  0  0  0  0  0  0  0
   32.4853   37.4262   59.2596 C   0  0  0  0  0  0  0  0  0  0  0  0
   32.6345   38.7066   59.6190 N   0  0  0  0  0  0  0  0  0  0  0  0
   33.1205   39.6101   58.8026 C   0  0  0  0  0  0  0  0  0  0  0  0
   33.2383   40.9090   59.2437 N   0  0  0  0  0  0  0  0  0  0  0  0
   33.5080   39.3099   57.5303 N   0  0  0  0  0  0  0  0  0  0  0  0
   34.0433   40.0611   56.4763 N   0  0  0  0  0  0  0  0  0  0  0  0
   34.2246   39.2337   55.4637 C   0  0  0  0  0  0  0  0  0  0  0  0
   34.7740   39.6056   54.1429 C   0  0  0  0  0  0  0  0  0  0  0  0
   34.9711   38.7625   53.0948 C   0  0  0  0  0  0  0  0  0  0  0  0
   35.5044   39.5371   52.0456 C   0  0  0  0  0  0  0  0  0  0  0  0
   35.6139   40.7998   52.5034 C   0  0  0  0  0  0  0  0  0  0  0  0
   35.1718   40.8375   53.7707 O   0  0  0  0  0  0  0  0  0  0  0  0
   33.8324   38.0052   55.8213 N   0  0  0  0  0  0  0  0  0  0  0  0
   33.3946   38.0249   57.0649 C   0  0  0  0  0  0  0  0  0  0  0  0
   31.1083   38.5251   63.8050 H   0  0  0  0  0  0  0  0  0  0  0  0
   30.0238   37.1941   63.3357 H   0  0  0  0  0  0  0  0  0  0  0  0
   31.6674   36.8390   63.9195 H   0  0  0  0  0  0  0  0  0  0  0  0
   32.6185   37.9585   61.9218 H   0  0  0  0  0  0  0  0  0  0  0  0
   30.9750   38.3135   61.3380 H   0  0  0  0  0  0  0  0  0  0  0  0
   30.4794   35.8852   61.2569 H   0  0  0  0  0  0  0  0  0  0  0  0
   32.1230   35.5303   61.8406 H   0  0  0  0  0  0  0  0  0  0  0  0
   31.8146   34.2488   59.2163 H   0  0  0  0  0  0  0  0  0  0  0  0
   32.9640   41.1421   60.1444 H   0  0  0  0  0  0  0  0  0  0  0  0
   33.5957   41.5911   58.6537 H   0  0  0  0  0  0  0  0  0  0  0  0
   34.7577   37.7041   53.0703 H   0  0  0  0  0  0  0  0  0  0  0  0
   35.7779   39.1846   51.0620 H   0  0  0  0  0  0  0  0  0  0  0  0
   35.9945   41.6416   51.9440 H   0  0  0  0  0  0  0  0  0  0  0  0
  1  2  1  0  0  0  0
  1 22  1  0  0  0  0
  1 23  1  0  0  0  0
  1 24  1  0  0  0  0
  2  3  1  0  0  0  0
  2 25  1  0  0  0  0
  2 26  1  0  0  0  0
  3  4  1  0  0  0  0
  3 27  1  0  0  0  0
  3 28  1  0  0  0  0
  4  8  1  0  0  0  0
  4  5  1  0  0  0  0
  5  6  2  0  0  0  0
  5 29  1  0  0  0  0
  6  7  1  0  0  0  0
  7 21  1  0  0  0  0
  7  8  2  0  0  0  0
  8  9  1  0  0  0  0
  9 10  2  0  0  0  0
 10 11  1  0  0  0  0
 10 12  1  0  0  0  0
 11 30  1  0  0  0  0
 11 31  1  0  0  0  0
 12 21  1  0  0  0  0
 12 13  1  0  0  0  0
 13 14  2  0  0  0  0
 14 15  1  0  0  0  0
 14 20  1  0  0  0  0
 15 19  1  0  0  0  0
 15 16  2  0  0  0  0
 16 17  1  0  0  0  0
 16 32  1  0  0  0  0
 17 18  2  0  0  0  0
 17 33  1  0  0  0  0
 18 19  1  0  0  0  0
 18 34  1  0  0  0  0
 20 21  2  0  0  0  0
M  END
$$$$
