CHEMBL461650      none
 OpenBabel11202420153D

 31 34  0  0  0  0  0  0  0  0999 V2000
   33.4621   40.8362   58.8358 N   0  0  0  0  0  0  0  0  0  0  0  0
   33.3646   39.5190   58.4208 C   0  0  0  0  0  0  0  0  0  0  0  0
   33.7220   39.2110   57.1817 N   0  0  0  0  0  0  0  0  0  0  0  0
   33.6468   37.9588   56.7341 C   0  0  0  0  0  0  0  0  0  0  0  0
   34.0456   37.6266   55.3563 C   0  0  0  0  0  0  0  0  0  0  0  0
   34.5069   38.5056   54.4227 C   0  0  0  0  0  0  0  0  0  0  0  0
   34.7671   37.7602   53.2586 C   0  0  0  0  0  0  0  0  0  0  0  0
   34.4475   36.4775   53.5297 C   0  0  0  0  0  0  0  0  0  0  0  0
   34.0126   36.4009   54.7964 O   0  0  0  0  0  0  0  0  0  0  0  0
   33.1751   36.9559   57.6121 C   0  0  0  0  0  0  0  0  0  0  0  0
   32.9760   35.6327   57.4990 N   0  0  0  0  0  0  0  0  0  0  0  0
   32.5223   35.1560   58.6055 N   0  0  0  0  0  0  0  0  0  0  0  0
   32.3961   36.1933   59.5420 N   0  0  0  0  0  0  0  0  0  0  0  0
   31.9157   36.0743   60.9209 C   0  0  0  0  0  0  0  0  0  0  0  0
   30.4219   36.2714   60.9510 C   0  0  0  0  0  0  0  0  0  0  0  0
   29.6451   36.2306   62.0484 C   0  0  0  0  0  0  0  0  0  0  0  0
   28.3185   36.4667   61.6201 C   0  0  0  0  0  0  0  0  0  0  0  0
   28.3640   36.6377   60.2867 C   0  0  0  0  0  0  0  0  0  0  0  0
   29.6407   36.5184   59.8869 O   0  0  0  0  0  0  0  0  0  0  0  0
   32.8035   37.3381   58.9143 C   0  0  0  0  0  0  0  0  0  0  0  0
   32.9183   38.6122   59.2751 N   0  0  0  0  0  0  0  0  0  0  0  0
   33.7873   41.5147   58.2237 H   0  0  0  0  0  0  0  0  0  0  0  0
   33.2052   41.0805   59.7388 H   0  0  0  0  0  0  0  0  0  0  0  0
   34.6479   39.5686   54.5523 H   0  0  0  0  0  0  0  0  0  0  0  0
   35.1471   38.1430   52.3229 H   0  0  0  0  0  0  0  0  0  0  0  0
   34.5285   35.6497   52.8410 H   0  0  0  0  0  0  0  0  0  0  0  0
   32.3950   36.8331   61.5394 H   0  0  0  0  0  0  0  0  0  0  0  0
   32.1594   35.0841   61.3063 H   0  0  0  0  0  0  0  0  0  0  0  0
   29.9719   36.0516   63.0621 H   0  0  0  0  0  0  0  0  0  0  0  0
   27.4381   36.5067   62.2444 H   0  0  0  0  0  0  0  0  0  0  0  0
   27.5178   36.8377   59.6463 H   0  0  0  0  0  0  0  0  0  0  0  0
  1  2  1  0  0  0  0
  1 22  1  0  0  0  0
  1 23  1  0  0  0  0
  2 21  2  0  0  0  0
  2  3  1  0  0  0  0
  3  4  2  0  0  0  0
  4  5  1  0  0  0  0
  4 10  1  0  0  0  0
  5  9  1  0  0  0  0
  5  6  2  0  0  0  0
  6  7  1  0  0  0  0
  6 24  1  0  0  0  0
  7  8  2  0  0  0  0
  7 25  1  0  0  0  0
  8  9  1  0  0  0  0
  8 26  1  0  0  0  0
 10 20  2  0  0  0  0
 10 11  1  0  0  0  0
 11 12  2  0  0  0  0
 12 13  1  0  0  0  0
 13 14  1  0  0  0  0
 13 20  1  0  0  0  0
 14 15  1  0  0  0  0
 14 27  1  0  0  0  0
 14 28  1  0  0  0  0
 15 19  1  0  0  0  0
 15 16  2  0  0  0  0
 16 17  1  0  0  0  0
 16 29  1  0  0  0  0
 17 18  2  0  0  0  0
 17 30  1  0  0  0  0
 18 19  1  0  0  0  0
 18 31  1  0  0  0  0
 20 21  1  0  0  0  0
M  END
$$$$
