CHEMBL118164      none
 OpenBabel11202420153D

 34 37  0  0  0  0  0  0  0  0999 V2000
   30.3458   34.4269   65.2645 N   0  0  0  0  0  0  0  0  0  0  0  0
   30.7994   35.0358   64.0905 C   0  0  0  0  0  0  0  0  0  0  0  0
   31.0337   34.2690   62.9561 C   0  0  0  0  0  0  0  0  0  0  0  0
   31.4811   34.8704   61.7970 C   0  0  0  0  0  0  0  0  0  0  0  0
   31.6968   36.2421   61.7649 C   0  0  0  0  0  0  0  0  0  0  0  0
   32.1509   36.8526   60.5879 N   0  0  0  0  0  0  0  0  0  0  0  0
   32.4163   38.2182   60.4126 N   0  0  0  0  0  0  0  0  0  0  0  0
   32.8248   38.3953   59.1842 C   0  0  0  0  0  0  0  0  0  0  0  0
   33.2422   39.5888   58.4333 C   0  0  0  0  0  0  0  0  0  0  0  0
   33.2423   40.8257   59.0467 N   0  0  0  0  0  0  0  0  0  0  0  0
   33.6139   39.4779   57.1805 N   0  0  0  0  0  0  0  0  0  0  0  0
   33.6257   38.2753   56.5447 C   0  0  0  0  0  0  0  0  0  0  0  0
   34.0292   38.2003   55.2070 C   0  0  0  0  0  0  0  0  0  0  0  0
   34.0441   36.9841   54.5600 C   0  0  0  0  0  0  0  0  0  0  0  0
   33.6596   35.8313   55.2248 C   0  0  0  0  0  0  0  0  0  0  0  0
   33.2581   35.8883   56.5452 C   0  0  0  0  0  0  0  0  0  0  0  0
   33.2379   37.1038   57.2125 C   0  0  0  0  0  0  0  0  0  0  0  0
   32.8333   37.1656   58.5449 N   0  0  0  0  0  0  0  0  0  0  0  0
   32.4175   36.2321   59.4199 C   0  0  0  0  0  0  0  0  0  0  0  0
   32.3023   35.0400   59.1976 O   0  0  0  0  0  0  0  0  0  0  0  0
   31.4679   37.0080   62.9006 C   0  0  0  0  0  0  0  0  0  0  0  0
   31.0152   36.4078   64.0583 C   0  0  0  0  0  0  0  0  0  0  0  0
   30.1948   33.4690   65.2870 H   0  0  0  0  0  0  0  0  0  0  0  0
   30.1822   34.9623   66.0567 H   0  0  0  0  0  0  0  0  0  0  0  0
   30.8663   33.2024   62.9811 H   0  0  0  0  0  0  0  0  0  0  0  0
   31.6629   34.2744   60.9149 H   0  0  0  0  0  0  0  0  0  0  0  0
   32.9670   40.9076   59.9731 H   0  0  0  0  0  0  0  0  0  0  0  0
   33.5177   41.6128   58.5512 H   0  0  0  0  0  0  0  0  0  0  0  0
   34.3297   39.0953   54.6824 H   0  0  0  0  0  0  0  0  0  0  0  0
   34.3572   36.9291   53.5279 H   0  0  0  0  0  0  0  0  0  0  0  0
   33.6743   34.8830   54.7082 H   0  0  0  0  0  0  0  0  0  0  0  0
   32.9595   34.9860   57.0581 H   0  0  0  0  0  0  0  0  0  0  0  0
   31.6400   38.0740   62.8768 H   0  0  0  0  0  0  0  0  0  0  0  0
   30.8334   37.0039   64.9402 H   0  0  0  0  0  0  0  0  0  0  0  0
  1  2  1  0  0  0  0
  1 23  1  0  0  0  0
  1 24  1  0  0  0  0
  2 22  2  0  0  0  0
  2  3  1  0  0  0  0
  3  4  2  0  0  0  0
  3 25  1  0  0  0  0
  4  5  1  0  0  0  0
  4 26  1  0  0  0  0
  5  6  1  0  0  0  0
  5 21  2  0  0  0  0
  6 19  1  0  0  0  0
  6  7  1  0  0  0  0
  7  8  2  0  0  0  0
  8 18  1  0  0  0  0
  8  9  1  0  0  0  0
  9 10  1  0  0  0  0
  9 11  2  0  0  0  0
 10 27  1  0  0  0  0
 10 28  1  0  0  0  0
 11 12  1  0  0  0  0
 12 17  2  0  0  0  0
 12 13  1  0  0  0  0
 13 14  2  0  0  0  0
 13 29  1  0  0  0  0
 14 15  1  0  0  0  0
 14 30  1  0  0  0  0
 15 16  2  0  0  0  0
 15 31  1  0  0  0  0
 16 17  1  0  0  0  0
 16 32  1  0  0  0  0
 17 18  1  0  0  0  0
 18 19  1  0  0  0  0
 19 20  2  0  0  0  0
 21 22  1  0  0  0  0
 21 33  1  0  0  0  0
 22 34  1  0  0  0  0
M  END
$$$$
