CHEMBL608029      none
 OpenBabel11202420153D

 53 56  0  0  1  0  0  0  0  0999 V2000
   23.9068   38.8712   69.2044 C   0  0  0  0  0  0  0  0  0  0  0  0
   24.6167   40.0220   68.4881 C   0  0  0  0  0  0  0  0  0  0  0  0
   24.8896   41.1512   69.4837 C   0  0  0  0  0  0  0  0  0  0  0  0
   25.5995   42.3020   68.7675 C   0  0  0  0  0  0  0  0  0  0  0  0
   26.8739   41.8209   68.2095 C   0  0  0  0  0  0  0  0  0  0  0  0
   27.8903   41.4374   67.7645 C   0  0  0  0  0  0  0  0  0  0  0  0
   29.1301   40.9695   67.2218 C   0  0  0  0  0  0  0  0  0  0  0  0
   30.2635   41.5365   67.6260 N   0  0  0  0  0  0  0  0  0  0  0  0
   31.4367   41.1367   67.1525 C   0  0  0  0  0  0  0  0  0  0  0  0
   32.6109   41.7322   67.5792 N   0  0  0  0  0  0  0  0  0  0  0  0
   31.4617   40.0953   66.2073 C   0  0  0  0  0  0  0  0  0  0  0  0
   32.4410   39.4507   65.5297 N   0  0  0  0  0  0  0  0  0  0  0  0
   31.9119   38.5442   64.7599 C   0  0  0  0  0  0  0  0  0  0  0  0
   30.5554   38.5508   64.8962 N   0  0  0  0  0  0  0  0  0  0  0  0
   29.6094   37.6778   64.1968 C   0  0  2  0  0  0  0  0  0  0  0  0
   29.4286   36.4596   64.9382 O   0  0  0  0  0  0  0  0  0  0  0  0
   29.2275   35.4047   63.9731 C   0  0  2  0  0  0  0  0  0  0  0  0
   28.2067   35.4201   63.5912 H   0  0  0  0  0  0  0  0  0  0  0  0
   29.5452   34.0625   64.5800 C   0  0  0  0  0  0  0  0  0  0  0  0
   30.4545   33.3951   64.1340 O   0  0  0  0  0  0  0  0  0  0  0  0
   28.8189   33.6035   65.6184 N   0  0  0  0  0  0  0  0  0  0  0  0
   29.1277   32.2986   66.2084 C   0  0  0  0  0  0  0  0  0  0  0  0
   28.4944   31.0640   65.5636 C   0  0  0  0  0  0  0  0  0  0  0  0
   27.9938   31.5596   66.9218 C   0  0  0  0  0  0  0  0  0  0  0  0
   30.2365   35.7473   62.8475 C   0  0  1  0  0  0  0  0  0  0  0  0
   31.2383   35.4041   63.1054 H   0  0  0  0  0  0  0  0  0  0  0  0
   29.8153   35.1937   61.5992 O   0  0  0  0  0  0  0  0  0  0  0  0
   30.1736   37.2938   62.8151 C   0  0  1  0  0  0  0  0  0  0  0  0
   31.1705   37.7134   62.6802 H   0  0  0  0  0  0  0  0  0  0  0  0
   29.2980   37.7372   61.7765 O   0  0  0  0  0  0  0  0  0  0  0  0
   30.2388   39.5257   65.8092 C   0  0  0  0  0  0  0  0  0  0  0  0
   29.1097   39.9853   66.3333 N   0  0  0  0  0  0  0  0  0  0  0  0
   23.7124   38.0668   68.4951 H   0  0  0  0  0  0  0  0  0  0  0  0
   24.5392   38.4998   70.0107 H   0  0  0  0  0  0  0  0  0  0  0  0
   22.9631   39.2275   69.6175 H   0  0  0  0  0  0  0  0  0  0  0  0
   23.9842   40.3934   67.6819 H   0  0  0  0  0  0  0  0  0  0  0  0
   25.5604   39.6659   68.0751 H   0  0  0  0  0  0  0  0  0  0  0  0
   25.5220   40.7799   70.2900 H   0  0  0  0  0  0  0  0  0  0  0  0
   23.9460   41.5075   69.8968 H   0  0  0  0  0  0  0  0  0  0  0  0
   25.7939   43.1065   69.4766 H   0  0  0  0  0  0  0  0  0  0  0  0
   24.9670   42.6733   67.9611 H   0  0  0  0  0  0  0  0  0  0  0  0
   33.4630   41.4322   67.2261 H   0  0  0  0  0  0  0  0  0  0  0  0
   32.5818   42.4497   68.2314 H   0  0  0  0  0  0  0  0  0  0  0  0
   32.4656   37.8867   64.1061 H   0  0  0  0  0  0  0  0  0  0  0  0
   28.6532   38.1874   64.0781 H   0  0  0  0  0  0  0  0  0  0  0  0
   28.0917   34.1371   65.9751 H   0  0  0  0  0  0  0  0  0  0  0  0
   30.1327   32.1935   66.6173 H   0  0  0  0  0  0  0  0  0  0  0  0
   27.8479   31.2227   64.7005 H   0  0  0  0  0  0  0  0  0  0  0  0
   29.0827   30.1465   65.5482 H   0  0  0  0  0  0  0  0  0  0  0  0
   28.2529   30.9682   67.8001 H   0  0  0  0  0  0  0  0  0  0  0  0
   27.0181   32.0443   66.9523 H   0  0  0  0  0  0  0  0  0  0  0  0
   29.8374   34.2274   61.5701 H   0  0  0  0  0  0  0  0  0  0  0  0
   29.6047   37.5219   60.8850 H   0  0  0  0  0  0  0  0  0  0  0  0
  1  2  1  0  0  0  0
  1 33  1  0  0  0  0
  1 34  1  0  0  0  0
  1 35  1  0  0  0  0
  2  3  1  0  0  0  0
  2 36  1  0  0  0  0
  2 37  1  0  0  0  0
  3  4  1  0  0  0  0
  3 38  1  0  0  0  0
  3 39  1  0  0  0  0
  4  5  1  0  0  0  0
  4 40  1  0  0  0  0
  4 41  1  0  0  0  0
  5  6  3  0  0  0  0
  6  7  1  0  0  0  0
  7 32  2  0  0  0  0
  7  8  1  0  0  0  0
  8  9  2  0  0  0  0
  9 10  1  0  0  0  0
  9 11  1  0  0  0  0
 10 42  1  0  0  0  0
 10 43  1  0  0  0  0
 11 31  2  0  0  0  0
 11 12  1  0  0  0  0
 12 13  2  0  0  0  0
 13 14  1  0  0  0  0
 13 44  1  0  0  0  0
 14 15  1  0  0  0  0
 14 31  1  0  0  0  0
 15 28  1  0  0  0  0
 15 16  1  0  0  0  0
 15 45  1  6  0  0  0
 16 17  1  0  0  0  0
 17 18  1  6  0  0  0
 17 19  1  0  0  0  0
 17 25  1  0  0  0  0
 19 20  2  0  0  0  0
 19 21  1  0  0  0  0
 21 22  1  0  0  0  0
 21 46  1  0  0  0  0
 22 24  1  0  0  0  0
 22 23  1  0  0  0  0
 22 47  1  0  0  0  0
 23 24  1  0  0  0  0
 23 48  1  0  0  0  0
 23 49  1  0  0  0  0
 24 50  1  0  0  0  0
 24 51  1  0  0  0  0
 25 26  1  1  0  0  0
 25 27  1  0  0  0  0
 25 28  1  0  0  0  0
 27 52  1  0  0  0  0
 28 29  1  6  0  0  0
 28 30  1  0  0  0  0
 30 53  1  0  0  0  0
 31 32  1  0  0  0  0
M  END
$$$$
