CHEMBL110047      none
 OpenBabel11202420153D

 44 47  0  0  1  0  0  0  0  0999 V2000
   29.4793   40.6654   67.2045 C   0  0  0  0  0  0  0  0  0  0  0  0
   30.8740   40.5454   66.9171 O   0  0  0  0  0  0  0  0  0  0  0  0
   31.1595   39.8421   65.7065 C   0  0  0  0  0  0  0  0  0  0  0  0
   31.0594   38.3359   65.9559 C   0  0  2  0  0  0  0  0  0  0  0  0
   30.0544   38.0795   66.2910 H   0  0  0  0  0  0  0  0  0  0  0  0
   32.0923   37.9104   67.0208 C   0  0  0  0  0  0  0  0  0  0  0  0
   32.5932   36.5387   66.4963 C   0  0  0  0  0  0  0  0  0  0  0  0
   32.5716   36.7648   64.9640 C   0  0  0  0  0  0  0  0  0  0  0  0
   31.3791   37.5970   64.7221 N   0  0  0  0  0  0  0  0  0  0  0  0
   30.6962   37.6729   63.5625 C   0  0  0  0  0  0  0  0  0  0  0  0
   29.7227   38.3960   63.4766 O   0  0  0  0  0  0  0  0  0  0  0  0
   31.1305   36.8778   62.3968 C   0  0  0  0  0  0  0  0  0  0  0  0
   31.4834   37.5078   61.2247 C   0  0  0  0  0  0  0  0  0  0  0  0
   31.8881   36.7854   60.1504 N   0  0  0  0  0  0  0  0  0  0  0  0
   32.3009   37.1479   58.8597 N   0  0  0  0  0  0  0  0  0  0  0  0
   32.5779   36.0281   58.2143 C   0  0  0  0  0  0  0  0  0  0  0  0
   33.0508   35.9410   56.8173 C   0  0  0  0  0  0  0  0  0  0  0  0
   33.7939   36.8755   56.1669 C   0  0  0  0  0  0  0  0  0  0  0  0
   34.0176   36.3831   54.8661 C   0  0  0  0  0  0  0  0  0  0  0  0
   33.3981   35.1876   54.7843 C   0  0  0  0  0  0  0  0  0  0  0  0
   33.3573   34.0688   53.2603 Br  0  0  0  0  0  0  0  0  0  0  0  0
   32.8154   34.9242   55.9648 O   0  0  0  0  0  0  0  0  0  0  0  0
   32.3634   34.9883   59.0235 N   0  0  0  0  0  0  0  0  0  0  0  0
   31.9443   35.4207   60.2046 C   0  0  0  0  0  0  0  0  0  0  0  0
   31.5824   34.7448   61.3943 C   0  0  0  0  0  0  0  0  0  0  0  0
   31.6379   33.3500   61.4565 N   0  0  0  0  0  0  0  0  0  0  0  0
   31.1796   35.4658   62.4796 C   0  0  0  0  0  0  0  0  0  0  0  0
   29.0408   39.6720   67.2987 H   0  0  0  0  0  0  0  0  0  0  0  0
   29.3463   41.2113   68.1386 H   0  0  0  0  0  0  0  0  0  0  0  0
   28.9867   41.2048   66.3953 H   0  0  0  0  0  0  0  0  0  0  0  0
   32.1671   40.0888   65.3719 H   0  0  0  0  0  0  0  0  0  0  0  0
   30.4410   40.1319   64.9398 H   0  0  0  0  0  0  0  0  0  0  0  0
   31.6178   37.8006   67.9959 H   0  0  0  0  0  0  0  0  0  0  0  0
   32.9121   38.6270   67.0707 H   0  0  0  0  0  0  0  0  0  0  0  0
   33.6046   36.3323   66.8467 H   0  0  0  0  0  0  0  0  0  0  0  0
   31.9116   35.7381   66.7835 H   0  0  0  0  0  0  0  0  0  0  0  0
   33.4719   37.2902   64.6453 H   0  0  0  0  0  0  0  0  0  0  0  0
   32.4841   35.8123   64.4413 H   0  0  0  0  0  0  0  0  0  0  0  0
   31.4413   38.5851   61.1614 H   0  0  0  0  0  0  0  0  0  0  0  0
   34.1465   37.8132   56.5703 H   0  0  0  0  0  0  0  0  0  0  0  0
   34.5754   36.8724   54.0813 H   0  0  0  0  0  0  0  0  0  0  0  0
   31.3893   32.8908   62.2740 H   0  0  0  0  0  0  0  0  0  0  0  0
   31.9249   32.8411   60.6823 H   0  0  0  0  0  0  0  0  0  0  0  0
   30.9002   34.9637   63.3940 H   0  0  0  0  0  0  0  0  0  0  0  0
  1  2  1  0  0  0  0
  1 28  1  0  0  0  0
  1 29  1  0  0  0  0
  1 30  1  0  0  0  0
  2  3  1  0  0  0  0
  3  4  1  0  0  0  0
  3 31  1  0  0  0  0
  3 32  1  0  0  0  0
  4  5  1  1  0  0  0
  4  9  1  0  0  0  0
  4  6  1  0  0  0  0
  6  7  1  0  0  0  0
  6 33  1  0  0  0  0
  6 34  1  0  0  0  0
  7  8  1  0  0  0  0
  7 35  1  0  0  0  0
  7 36  1  0  0  0  0
  8  9  1  0  0  0  0
  8 37  1  0  0  0  0
  8 38  1  0  0  0  0
  9 10  1  0  0  0  0
 10 11  2  0  0  0  0
 10 12  1  0  0  0  0
 12 27  1  0  0  0  0
 12 13  2  0  0  0  0
 13 14  1  0  0  0  0
 13 39  1  0  0  0  0
 14 24  1  0  0  0  0
 14 15  1  0  0  0  0
 15 16  2  0  0  0  0
 16 17  1  0  0  0  0
 16 23  1  0  0  0  0
 17 22  1  0  0  0  0
 17 18  2  0  0  0  0
 18 19  1  0  0  0  0
 18 40  1  0  0  0  0
 19 20  2  0  0  0  0
 19 41  1  0  0  0  0
 20 21  1  0  0  0  0
 20 22  1  0  0  0  0
 23 24  2  0  0  0  0
 24 25  1  0  0  0  0
 25 26  1  0  0  0  0
 25 27  2  0  0  0  0
 26 42  1  0  0  0  0
 26 43  1  0  0  0  0
 27 44  1  0  0  0  0
M  END
$$$$
