ZINC000000051297      none
 OpenBabel11202420153D

 32 33  0  0  0  0  0  0  0  0999 V2000
   32.0947   36.6814   63.3969 C   0  0  0  0  0  0  0  0  0  0  0  0
   32.5216   36.2666   62.0725 O   0  0  0  0  0  0  0  0  0  0  0  0
   31.8838   36.8207   61.0227 C   0  0  0  0  0  0  0  0  0  0  0  0
   30.9953   37.6283   61.2089 O   0  0  0  0  0  0  0  0  0  0  0  0
   32.2642   36.4469   59.6480 C   0  0  0  0  0  0  0  0  0  0  0  0
   32.7265   37.4222   58.7592 C   0  0  0  0  0  0  0  0  0  0  0  0
   33.0803   37.0698   57.4765 C   0  0  0  0  0  0  0  0  0  0  0  0
   32.9783   35.7447   57.0641 C   0  0  0  0  0  0  0  0  0  0  0  0
   33.3376   35.3915   55.7642 N   0  0  0  0  0  0  0  0  0  0  0  0
   32.7285   34.3550   55.1548 C   0  0  0  0  0  0  0  0  0  0  0  0
   31.8681   33.7297   55.7373 O   0  0  0  0  0  0  0  0  0  0  0  0
   33.1170   33.9731   53.7497 C   0  0  0  0  0  0  0  0  0  0  0  0
   34.2037   32.9915   53.7931 N   0  0  0  0  0  0  0  0  0  0  0  0
   34.2929   31.8453   53.0504 C   0  0  0  0  0  0  0  0  0  0  0  0
   35.4448   31.2423   53.4012 C   0  0  0  0  0  0  0  0  0  0  0  0
   36.0427   31.9998   54.3327 N   0  0  0  0  0  0  0  0  0  0  0  0
   35.3050   33.0493   54.5726 C   0  0  0  0  0  0  0  0  0  0  0  0
   32.5132   34.7724   57.9442 C   0  0  0  0  0  0  0  0  0  0  0  0
   32.1631   35.1167   59.2300 C   0  0  0  0  0  0  0  0  0  0  0  0
   31.0411   36.4370   63.5321 H   0  0  0  0  0  0  0  0  0  0  0  0
   32.6877   36.1613   64.1492 H   0  0  0  0  0  0  0  0  0  0  0  0
   32.2348   37.7570   63.5036 H   0  0  0  0  0  0  0  0  0  0  0  0
   32.8056   38.4509   59.0785 H   0  0  0  0  0  0  0  0  0  0  0  0
   33.4372   37.8226   56.7894 H   0  0  0  0  0  0  0  0  0  0  0  0
   34.0258   35.8916   55.2983 H   0  0  0  0  0  0  0  0  0  0  0  0
   33.4498   34.8601   53.2108 H   0  0  0  0  0  0  0  0  0  0  0  0
   32.2563   33.5399   53.2399 H   0  0  0  0  0  0  0  0  0  0  0  0
   33.5773   31.4925   52.3224 H   0  0  0  0  0  0  0  0  0  0  0  0
   35.8232   30.3140   52.9996 H   0  0  0  0  0  0  0  0  0  0  0  0
   35.5366   33.8338   55.2777 H   0  0  0  0  0  0  0  0  0  0  0  0
   32.4312   33.7458   57.6192 H   0  0  0  0  0  0  0  0  0  0  0  0
   31.8063   34.3608   59.9140 H   0  0  0  0  0  0  0  0  0  0  0  0
  1  2  1  0  0  0  0
  1 20  1  0  0  0  0
  1 21  1  0  0  0  0
  1 22  1  0  0  0  0
  2  3  1  0  0  0  0
  3  4  2  0  0  0  0
  3  5  1  0  0  0  0
  5 19  2  0  0  0  0
  5  6  1  0  0  0  0
  6  7  2  0  0  0  0
  6 23  1  0  0  0  0
  7  8  1  0  0  0  0
  7 24  1  0  0  0  0
  8  9  1  0  0  0  0
  8 18  2  0  0  0  0
  9 10  1  0  0  0  0
  9 25  1  0  0  0  0
 10 11  2  0  0  0  0
 10 12  1  0  0  0  0
 12 13  1  0  0  0  0
 12 26  1  0  0  0  0
 12 27  1  0  0  0  0
 13 17  1  0  0  0  0
 13 14  1  0  0  0  0
 14 15  2  0  0  0  0
 14 28  1  0  0  0  0
 15 16  1  0  0  0  0
 15 29  1  0  0  0  0
 16 17  2  0  0  0  0
 17 30  1  0  0  0  0
 18 19  1  0  0  0  0
 18 31  1  0  0  0  0
 19 32  1  0  0  0  0
M  END
$$$$
