ZINC000000031381      none
 OpenBabel11202420163D

 16 17  0  0  0  0  0  0  0  0999 V2000
   31.8819   34.0925   58.9425 O   0  0  0  0  0  0  0  0  0  0  0  0
   32.2317   35.1615   58.4859 C   0  0  0  0  0  0  0  0  0  0  0  0
   32.6606   35.3597   57.2268 O   0  0  0  0  0  0  0  0  0  0  0  0
   32.9830   36.7705   57.0730 C   0  0  0  0  0  0  0  0  0  0  0  0
   32.6966   37.4157   58.4024 C   0  0  0  0  0  0  0  0  0  0  0  0
   32.2491   36.4385   59.2322 C   0  0  0  0  0  0  0  0  0  0  0  0
   31.9116   36.7664   60.5286 N   0  0  0  0  0  0  0  0  0  0  0  0
   31.5910   36.0744   61.1279 H   0  0  0  0  0  0  0  0  0  0  0  0
   32.0201   38.0290   60.9748 C   0  0  0  0  0  0  0  0  0  0  0  0
   31.7124   38.2755   62.1250 O   0  0  0  0  0  0  0  0  0  0  0  0
   32.4587   39.0286   60.1896 N   0  0  0  0  0  0  0  0  0  0  0  0
   32.5248   39.9287   60.5450 H   0  0  0  0  0  0  0  0  0  0  0  0
   32.8081   38.7839   58.9073 C   0  0  0  0  0  0  0  0  0  0  0  0
   33.2019   39.6825   58.1875 O   0  0  0  0  0  0  0  0  0  0  0  0
   34.0364   36.8883   56.8187 H   0  0  0  0  0  0  0  0  0  0  0  0
   32.3590   37.2150   56.2978 H   0  0  0  0  0  0  0  0  0  0  0  0
  1  2  2  0  0  0  0
  2  6  1  0  0  0  0
  2  3  1  0  0  0  0
  3  4  1  0  0  0  0
  4  5  1  0  0  0  0
  4 15  1  0  0  0  0
  4 16  1  0  0  0  0
  5 13  1  0  0  0  0
  5  6  2  0  0  0  0
  6  7  1  0  0  0  0
  7  8  1  0  0  0  0
  7  9  1  0  0  0  0
  9 10  2  0  0  0  0
  9 11  1  0  0  0  0
 11 12  1  0  0  0  0
 11 13  1  0  0  0  0
 13 14  2  0  0  0  0
M  END
$$$$
