ZINC000000000660      none
 OpenBabel11202420153D

 32 32  0  0  1  0  0  0  0  0999 V2000
   32.7736   37.8623   65.2432 C   0  0  0  0  0  0  0  0  0  0  0  0
   31.2462   37.8590   65.3323 C   0  0  0  0  0  0  0  0  0  0  0  0
   30.7166   36.4728   64.9592 C   0  0  2  0  0  0  0  0  0  0  0  0
   29.6285   36.4704   65.0225 H   0  0  0  0  0  0  0  0  0  0  0  0
   31.2571   35.4853   65.8762 O   0  0  0  0  0  0  0  0  0  0  0  0
   30.5456   35.2321   66.9908 C   0  0  0  0  0  0  0  0  0  0  0  0
   30.9913   34.3262   67.8836 N   0  0  0  0  0  0  0  0  0  0  0  0
   29.5015   35.8203   67.1917 O   0  0  0  0  0  0  0  0  0  0  0  0
   31.1451   36.1308   63.5308 C   0  0  0  0  0  0  0  0  0  0  0  0
   30.5755   37.1714   62.5644 C   0  0  0  0  0  0  0  0  0  0  0  0
   31.0039   36.8293   61.1360 C   0  0  0  0  0  0  0  0  0  0  0  0
   30.4744   35.4432   60.7630 C   0  0  0  0  0  0  0  0  0  0  0  0
   31.0439   34.4026   61.7291 C   0  0  0  0  0  0  0  0  0  0  0  0
   30.6156   34.7446   63.1576 C   0  0  0  0  0  0  0  0  0  0  0  0
   33.0787   37.6185   64.2256 H   0  0  0  0  0  0  0  0  0  0  0  0
   33.1508   38.8498   65.5090 H   0  0  0  0  0  0  0  0  0  0  0  0
   33.1794   37.1210   65.9316 H   0  0  0  0  0  0  0  0  0  0  0  0
   30.8404   38.6002   64.6439 H   0  0  0  0  0  0  0  0  0  0  0  0
   30.9410   38.1026   66.3499 H   0  0  0  0  0  0  0  0  0  0  0  0
   31.8248   33.8566   67.7232 H   0  0  0  0  0  0  0  0  0  0  0  0
   30.4787   34.1437   68.6866 H   0  0  0  0  0  0  0  0  0  0  0  0
   32.2331   36.1332   63.4673 H   0  0  0  0  0  0  0  0  0  0  0  0
   29.4873   37.1689   62.6278 H   0  0  0  0  0  0  0  0  0  0  0  0
   30.9527   38.1589   62.8302 H   0  0  0  0  0  0  0  0  0  0  0  0
   32.0921   36.8317   61.0726 H   0  0  0  0  0  0  0  0  0  0  0  0
   30.5982   37.5706   60.4476 H   0  0  0  0  0  0  0  0  0  0  0  0
   30.7796   35.1995   59.7452 H   0  0  0  0  0  0  0  0  0  0  0  0
   29.3862   35.4408   60.8263 H   0  0  0  0  0  0  0  0  0  0  0  0
   32.1321   34.4050   61.6657 H   0  0  0  0  0  0  0  0  0  0  0  0
   30.6667   33.4151   61.4633 H   0  0  0  0  0  0  0  0  0  0  0  0
   31.0213   34.0033   63.8460 H   0  0  0  0  0  0  0  0  0  0  0  0
   29.5274   34.7422   63.2210 H   0  0  0  0  0  0  0  0  0  0  0  0
  1  2  1  0  0  0  0
  1 15  1  0  0  0  0
  1 16  1  0  0  0  0
  1 17  1  0  0  0  0
  2  3  1  0  0  0  0
  2 18  1  0  0  0  0
  2 19  1  0  0  0  0
  3  4  1  1  0  0  0
  3  5  1  0  0  0  0
  3  9  1  0  0  0  0
  5  6  1  0  0  0  0
  6  7  1  0  0  0  0
  6  8  2  0  0  0  0
  7 20  1  0  0  0  0
  7 21  1  0  0  0  0
  9 14  1  0  0  0  0
  9 10  1  0  0  0  0
  9 22  1  0  0  0  0
 10 11  1  0  0  0  0
 10 23  1  0  0  0  0
 10 24  1  0  0  0  0
 11 12  1  0  0  0  0
 11 25  1  0  0  0  0
 11 26  1  0  0  0  0
 12 13  1  0  0  0  0
 12 27  1  0  0  0  0
 12 28  1  0  0  0  0
 13 14  1  0  0  0  0
 13 29  1  0  0  0  0
 13 30  1  0  0  0  0
 14 31  1  0  0  0  0
 14 32  1  0  0  0  0
M  END
$$$$
