ZINC000000043169      none
 OpenBabel11202420153D

 37 39  0  0  0  0  0  0  0  0999 V2000
   30.6839   37.3614   64.0876 C   0  0  0  0  0  0  0  0  0  0  0  0
   29.6189   36.5998   63.2958 C   0  0  0  0  0  0  0  0  0  0  0  0
   29.9595   35.1319   63.2791 C   0  0  0  0  0  0  0  0  0  0  0  0
   29.4793   34.2992   64.2711 C   0  0  0  0  0  0  0  0  0  0  0  0
   29.7961   32.9535   64.2596 C   0  0  0  0  0  0  0  0  0  0  0  0
   30.5900   32.4353   63.2528 C   0  0  0  0  0  0  0  0  0  0  0  0
   31.0688   33.2609   62.2550 C   0  0  0  0  0  0  0  0  0  0  0  0
   30.7524   34.6136   62.2633 C   0  0  0  0  0  0  0  0  0  0  0  0
   31.2354   35.4517   61.2558 N   0  0  0  0  0  0  0  0  0  0  0  0
   32.0716   34.9034   60.1851 C   0  0  0  0  0  0  0  0  0  0  0  0
   32.4468   35.9761   59.2604 N   0  0  0  0  0  0  0  0  0  0  0  0
   32.6825   35.8015   57.9476 C   0  0  0  0  0  0  0  0  0  0  0  0
   32.6184   34.7462   57.3500 O   0  0  0  0  0  0  0  0  0  0  0  0
   33.0317   37.1093   57.3538 C   0  0  0  0  0  0  0  0  0  0  0  0
   33.3650   37.5349   56.0779 C   0  0  0  0  0  0  0  0  0  0  0  0
   33.6400   38.8743   55.8502 C   0  0  0  0  0  0  0  0  0  0  0  0
   33.5896   39.7863   56.8878 C   0  0  0  0  0  0  0  0  0  0  0  0
   33.2628   39.3741   58.1703 C   0  0  0  0  0  0  0  0  0  0  0  0
   32.9850   38.0384   58.4127 C   0  0  0  0  0  0  0  0  0  0  0  0
   32.6120   37.2633   59.6147 C   0  0  0  0  0  0  0  0  0  0  0  0
   32.4665   37.7151   60.7326 O   0  0  0  0  0  0  0  0  0  0  0  0
   30.7159   36.9841   65.1097 H   0  0  0  0  0  0  0  0  0  0  0  0
   31.6569   37.2196   63.6172 H   0  0  0  0  0  0  0  0  0  0  0  0
   30.4376   38.4231   64.0998 H   0  0  0  0  0  0  0  0  0  0  0  0
   29.5869   36.9770   62.2738 H   0  0  0  0  0  0  0  0  0  0  0  0
   28.6460   36.7416   63.7662 H   0  0  0  0  0  0  0  0  0  0  0  0
   28.8589   34.7007   65.0589 H   0  0  0  0  0  0  0  0  0  0  0  0
   29.4222   32.3054   65.0386 H   0  0  0  0  0  0  0  0  0  0  0  0
   30.8356   31.3836   63.2468 H   0  0  0  0  0  0  0  0  0  0  0  0
   31.6881   32.8553   61.4685 H   0  0  0  0  0  0  0  0  0  0  0  0
   31.0172   36.3968   61.2650 H   0  0  0  0  0  0  0  0  0  0  0  0
   31.5150   34.1370   59.6456 H   0  0  0  0  0  0  0  0  0  0  0  0
   32.9712   34.4637   60.6156 H   0  0  0  0  0  0  0  0  0  0  0  0
   33.4058   36.8269   55.2634 H   0  0  0  0  0  0  0  0  0  0  0  0
   33.8958   39.2076   54.8553 H   0  0  0  0  0  0  0  0  0  0  0  0
   33.8067   40.8271   56.6980 H   0  0  0  0  0  0  0  0  0  0  0  0
   33.2246   40.0911   58.9771 H   0  0  0  0  0  0  0  0  0  0  0  0
  1  2  1  0  0  0  0
  1 22  1  0  0  0  0
  1 23  1  0  0  0  0
  1 24  1  0  0  0  0
  2  3  1  0  0  0  0
  2 25  1  0  0  0  0
  2 26  1  0  0  0  0
  3  8  2  0  0  0  0
  3  4  1  0  0  0  0
  4  5  2  0  0  0  0
  4 27  1  0  0  0  0
  5  6  1  0  0  0  0
  5 28  1  0  0  0  0
  6  7  2  0  0  0  0
  6 29  1  0  0  0  0
  7  8  1  0  0  0  0
  7 30  1  0  0  0  0
  8  9  1  0  0  0  0
  9 10  1  0  0  0  0
  9 31  1  0  0  0  0
 10 11  1  0  0  0  0
 10 32  1  0  0  0  0
 10 33  1  0  0  0  0
 11 20  1  0  0  0  0
 11 12  1  0  0  0  0
 12 13  2  0  0  0  0
 12 14  1  0  0  0  0
 14 19  2  0  0  0  0
 14 15  1  0  0  0  0
 15 16  2  0  0  0  0
 15 34  1  0  0  0  0
 16 17  1  0  0  0  0
 16 35  1  0  0  0  0
 17 18  2  0  0  0  0
 17 36  1  0  0  0  0
 18 19  1  0  0  0  0
 18 37  1  0  0  0  0
 19 20  1  0  0  0  0
 20 21  2  0  0  0  0
M  END
$$$$
