ZINC000000005200      none
 OpenBabel11202420153D

 27 29  0  0  1  0  0  0  0  0999 V2000
   32.9314   33.8888   58.6042 N   0  0  0  0  0  0  0  0  0  0  0  0
   32.6451   33.9274   59.9579 C   0  0  0  0  0  0  0  0  0  0  0  0
   32.9595   32.8912   60.7255 N   0  0  0  0  0  0  0  0  0  0  0  0
   32.7073   32.8944   61.9879 N   0  0  0  0  0  0  0  0  0  0  0  0
   32.1297   33.9403   62.5537 C   0  0  0  0  0  0  0  0  0  0  0  0
   31.7867   35.0324   61.7704 C   0  0  0  0  0  0  0  0  0  0  0  0
   31.1218   36.2376   62.3839 C   0  0  1  0  0  0  0  0  0  0  0  0
   30.7704   36.1475   63.9037 C   0  0  0  0  0  0  0  0  0  0  0  0
   29.6722   37.2219   64.0809 C   0  0  0  0  0  0  0  0  0  0  0  0
   29.4948   37.8269   62.7209 N   0  0  1  0  0  0  0  0  0  0  0  0
   30.7245   38.6401   62.4719 C   0  0  0  0  0  0  0  0  0  0  0  0
   31.8782   37.5985   62.2539 C   0  0  0  0  0  0  0  0  0  0  0  0
   29.7131   36.6434   61.8179 C   0  0  0  0  0  0  0  0  0  0  0  0
   32.0588   34.9998   60.4749 N   0  0  0  0  0  0  0  0  0  0  0  0
   32.7035   34.6431   58.0385 H   0  0  0  0  0  0  0  0  0  0  0  0
   33.3599   33.1074   58.2211 H   0  0  0  0  0  0  0  0  0  0  0  0
   31.9228   33.9425   63.6136 H   0  0  0  0  0  0  0  0  0  0  0  0
   30.3848   35.1585   64.1515 H   0  0  0  0  0  0  0  0  0  0  0  0
   31.6417   36.3834   64.5147 H   0  0  0  0  0  0  0  0  0  0  0  0
   28.7427   36.7606   64.4146 H   0  0  0  0  0  0  0  0  0  0  0  0
   29.9965   37.9794   64.7946 H   0  0  0  0  0  0  0  0  0  0  0  0
   30.5956   39.2576   61.5829 H   0  0  0  0  0  0  0  0  0  0  0  0
   30.9454   39.2656   63.3369 H   0  0  0  0  0  0  0  0  0  0  0  0
   32.6490   37.6850   63.0197 H   0  0  0  0  0  0  0  0  0  0  0  0
   32.3094   37.7055   61.2586 H   0  0  0  0  0  0  0  0  0  0  0  0
   29.7651   36.9361   60.7692 H   0  0  0  0  0  0  0  0  0  0  0  0
   28.9690   35.8640   61.9818 H   0  0  0  0  0  0  0  0  0  0  0  0
  1  2  1  0  0  0  0
  1 15  1  0  0  0  0
  1 16  1  0  0  0  0
  2 14  2  0  0  0  0
  2  3  1  0  0  0  0
  3  4  2  0  0  0  0
  4  5  1  0  0  0  0
  5  6  2  0  0  0  0
  5 17  1  0  0  0  0
  6 14  1  0  0  0  0
  7  6  1  6  0  0  0
  7 12  1  0  0  0  0
  7 13  1  0  0  0  0
  7  8  1  0  0  0  0
  8  9  1  0  0  0  0
  8 18  1  0  0  0  0
  8 19  1  0  0  0  0
  9 20  1  0  0  0  0
  9 21  1  0  0  0  0
 10  9  1  1  0  0  0
 10 11  1  0  0  0  0
 10 13  1  0  0  0  0
 11 12  1  0  0  0  0
 11 22  1  0  0  0  0
 11 23  1  0  0  0  0
 12 24  1  0  0  0  0
 12 25  1  0  0  0  0
 13 26  1  0  0  0  0
 13 27  1  0  0  0  0
M  END
$$$$
