ZINC000000034383      none
 OpenBabel11202420153D

 36 36  0  0  0  0  0  0  0  0999 V2000
   29.1055   38.1639   65.0039 C   0  0  0  0  0  0  0  0  0  0  0  0
   30.5890   37.9062   64.7332 C   0  0  0  0  0  0  0  0  0  0  0  0
   31.0964   36.8117   65.6741 C   0  0  0  0  0  0  0  0  0  0  0  0
   31.3822   39.1925   64.9725 C   0  0  0  0  0  0  0  0  0  0  0  0
   31.2112   39.6124   66.3277 O   0  0  0  0  0  0  0  0  0  0  0  0
   30.7644   37.4757   63.3439 N   0  0  0  0  0  0  0  0  0  0  0  0
   30.3851   38.2845   62.3348 C   0  0  0  0  0  0  0  0  0  0  0  0
   29.8984   39.3688   62.5768 O   0  0  0  0  0  0  0  0  0  0  0  0
   30.5654   37.8416   60.9055 C   0  0  0  0  0  0  0  0  0  0  0  0
   32.0007   36.7383   60.7911 S   0  0  0  0  0  0  0  0  0  0  0  0
   32.5955   37.0298   59.1583 C   0  0  0  0  0  0  0  0  0  0  0  0
   33.0027   38.3040   58.7825 C   0  0  0  0  0  0  0  0  0  0  0  0
   33.4632   38.5301   57.5004 C   0  0  0  0  0  0  0  0  0  0  0  0
   33.5310   37.4876   56.5939 C   0  0  0  0  0  0  0  0  0  0  0  0
   34.0411   37.7374   55.1980 C   0  0  0  0  0  0  0  0  0  0  0  0
   34.3813   39.0875   55.0605 F   0  0  0  0  0  0  0  0  0  0  0  0
   35.1710   36.9458   54.9659 F   0  0  0  0  0  0  0  0  0  0  0  0
   33.0447   37.4108   54.2720 F   0  0  0  0  0  0  0  0  0  0  0  0
   33.1264   36.2179   56.9634 C   0  0  0  0  0  0  0  0  0  0  0  0
   32.6589   35.9852   58.2428 C   0  0  0  0  0  0  0  0  0  0  0  0
   32.1511   34.3911   58.7063 Cl  0  0  0  0  0  0  0  0  0  0  0  0
   28.5403   37.2477   64.8333 H   0  0  0  0  0  0  0  0  0  0  0  0
   28.9749   38.4843   66.0376 H   0  0  0  0  0  0  0  0  0  0  0  0
   28.7439   38.9438   64.3335 H   0  0  0  0  0  0  0  0  0  0  0  0
   32.1533   36.6281   65.4813 H   0  0  0  0  0  0  0  0  0  0  0  0
   30.9660   37.1319   66.7078 H   0  0  0  0  0  0  0  0  0  0  0  0
   30.5314   35.8953   65.5036 H   0  0  0  0  0  0  0  0  0  0  0  0
   32.4391   39.0088   64.7796 H   0  0  0  0  0  0  0  0  0  0  0  0
   31.0208   39.9722   64.3021 H   0  0  0  0  0  0  0  0  0  0  0  0
   31.5123   38.9660   66.9807 H   0  0  0  0  0  0  0  0  0  0  0  0
   31.1536   36.6085   63.1502 H   0  0  0  0  0  0  0  0  0  0  0  0
   30.7264   38.7141   60.2724 H   0  0  0  0  0  0  0  0  0  0  0  0
   29.6725   37.3119   60.5740 H   0  0  0  0  0  0  0  0  0  0  0  0
   32.9548   39.1177   59.4911 H   0  0  0  0  0  0  0  0  0  0  0  0
   33.7753   39.5213   57.2065 H   0  0  0  0  0  0  0  0  0  0  0  0
   33.1761   35.4073   56.2514 H   0  0  0  0  0  0  0  0  0  0  0  0
  1  2  1  0  0  0  0
  1 22  1  0  0  0  0
  1 23  1  0  0  0  0
  1 24  1  0  0  0  0
  2  3  1  0  0  0  0
  2  4  1  0  0  0  0
  2  6  1  0  0  0  0
  3 25  1  0  0  0  0
  3 26  1  0  0  0  0
  3 27  1  0  0  0  0
  4  5  1  0  0  0  0
  4 28  1  0  0  0  0
  4 29  1  0  0  0  0
  5 30  1  0  0  0  0
  6  7  1  0  0  0  0
  6 31  1  0  0  0  0
  7  8  2  0  0  0  0
  7  9  1  0  0  0  0
  9 10  1  0  0  0  0
  9 32  1  0  0  0  0
  9 33  1  0  0  0  0
 10 11  1  0  0  0  0
 11 20  2  0  0  0  0
 11 12  1  0  0  0  0
 12 13  2  0  0  0  0
 12 34  1  0  0  0  0
 13 14  1  0  0  0  0
 13 35  1  0  0  0  0
 14 15  1  0  0  0  0
 14 19  2  0  0  0  0
 15 16  1  0  0  0  0
 15 17  1  0  0  0  0
 15 18  1  0  0  0  0
 19 20  1  0  0  0  0
 19 36  1  0  0  0  0
 20 21  1  0  0  0  0
M  END
$$$$
