ZINC000000051524      none
 OpenBabel11202420153D

 37 39  0  0  0  0  0  0  0  0999 V2000
   32.3611   33.2950   60.7453 C   0  0  0  0  0  0  0  0  0  0  0  0
   32.5297   34.3350   59.6677 C   0  0  0  0  0  0  0  0  0  0  0  0
   32.9975   34.1236   58.4668 N   0  0  0  0  0  0  0  0  0  0  0  0
   33.0039   35.3325   57.7619 N   0  0  0  0  0  0  0  0  0  0  0  0
   33.4593   35.5190   56.3819 C   0  0  0  0  0  0  0  0  0  0  0  0
   33.9267   34.1993   55.8246 C   0  0  0  0  0  0  0  0  0  0  0  0
   33.5443   33.8110   54.5542 C   0  0  0  0  0  0  0  0  0  0  0  0
   33.9684   32.5977   54.0452 C   0  0  0  0  0  0  0  0  0  0  0  0
   34.7837   31.7775   54.8024 C   0  0  0  0  0  0  0  0  0  0  0  0
   35.1662   32.1658   56.0728 C   0  0  0  0  0  0  0  0  0  0  0  0
   34.7378   33.3767   56.5839 C   0  0  0  0  0  0  0  0  0  0  0  0
   32.5125   36.2977   58.5708 C   0  0  0  0  0  0  0  0  0  0  0  0
   32.3479   37.6377   58.2479 N   0  0  0  0  0  0  0  0  0  0  0  0
   32.2037   35.7007   59.7807 C   0  0  0  0  0  0  0  0  0  0  0  0
   31.6353   36.3734   60.9736 C   0  0  0  0  0  0  0  0  0  0  0  0
   30.4024   37.0186   60.8919 C   0  0  0  0  0  0  0  0  0  0  0  0
   29.8757   37.6384   62.0068 C   0  0  0  0  0  0  0  0  0  0  0  0
   30.5738   37.6293   63.2011 C   0  0  0  0  0  0  0  0  0  0  0  0
   31.8004   36.9954   63.2865 C   0  0  0  0  0  0  0  0  0  0  0  0
   32.3344   36.3678   62.1796 C   0  0  0  0  0  0  0  0  0  0  0  0
   31.3713   32.8458   60.6650 H   0  0  0  0  0  0  0  0  0  0  0  0
   33.1212   32.5227   60.6271 H   0  0  0  0  0  0  0  0  0  0  0  0
   32.4690   33.7643   61.7232 H   0  0  0  0  0  0  0  0  0  0  0  0
   34.2827   36.2329   56.3644 H   0  0  0  0  0  0  0  0  0  0  0  0
   32.6365   35.8984   55.7761 H   0  0  0  0  0  0  0  0  0  0  0  0
   32.9103   34.4536   53.9612 H   0  0  0  0  0  0  0  0  0  0  0  0
   33.6658   32.2924   53.0544 H   0  0  0  0  0  0  0  0  0  0  0  0
   35.1181   30.8315   54.4033 H   0  0  0  0  0  0  0  0  0  0  0  0
   35.7995   31.5230   56.6662 H   0  0  0  0  0  0  0  0  0  0  0  0
   35.0365   33.6798   57.5765 H   0  0  0  0  0  0  0  0  0  0  0  0
   32.5968   37.9585   57.3670 H   0  0  0  0  0  0  0  0  0  0  0  0
   31.9840   38.2534   58.9034 H   0  0  0  0  0  0  0  0  0  0  0  0
   29.8583   37.0299   59.9590 H   0  0  0  0  0  0  0  0  0  0  0  0
   28.9185   38.1348   61.9458 H   0  0  0  0  0  0  0  0  0  0  0  0
   30.1597   38.1192   64.0699 H   0  0  0  0  0  0  0  0  0  0  0  0
   32.3413   36.9920   64.2213 H   0  0  0  0  0  0  0  0  0  0  0  0
   33.2920   35.8729   62.2476 H   0  0  0  0  0  0  0  0  0  0  0  0
  1  2  1  0  0  0  0
  1 21  1  0  0  0  0
  1 22  1  0  0  0  0
  1 23  1  0  0  0  0
  2 14  1  0  0  0  0
  2  3  2  0  0  0  0
  3  4  1  0  0  0  0
  4  5  1  0  0  0  0
  4 12  1  0  0  0  0
  5  6  1  0  0  0  0
  5 24  1  0  0  0  0
  5 25  1  0  0  0  0
  6 11  2  0  0  0  0
  6  7  1  0  0  0  0
  7  8  2  0  0  0  0
  7 26  1  0  0  0  0
  8  9  1  0  0  0  0
  8 27  1  0  0  0  0
  9 10  2  0  0  0  0
  9 28  1  0  0  0  0
 10 11  1  0  0  0  0
 10 29  1  0  0  0  0
 11 30  1  0  0  0  0
 12 13  1  0  0  0  0
 12 14  2  0  0  0  0
 13 31  1  0  0  0  0
 13 32  1  0  0  0  0
 14 15  1  0  0  0  0
 15 20  2  0  0  0  0
 15 16  1  0  0  0  0
 16 17  2  0  0  0  0
 16 33  1  0  0  0  0
 17 18  1  0  0  0  0
 17 34  1  0  0  0  0
 18 19  2  0  0  0  0
 18 35  1  0  0  0  0
 19 20  1  0  0  0  0
 19 36  1  0  0  0  0
 20 37  1  0  0  0  0
M  END
$$$$
