ZINC000000021859      none
 OpenBabel11202420153D

 25 25  0  0  1  0  0  0  0  0999 V2000
   30.8196   38.7522   62.3220 C   0  0  0  0  0  0  0  0  0  0  0  0
   31.6032   38.7288   63.5168 O   0  0  0  0  0  0  0  0  0  0  0  0
   30.9763   39.0739   64.6731 C   0  0  0  0  0  0  0  0  0  0  0  0
   29.6364   39.4328   64.6551 C   0  0  0  0  0  0  0  0  0  0  0  0
   28.9998   39.7834   65.8295 C   0  0  0  0  0  0  0  0  0  0  0  0
   29.7001   39.7765   67.0270 C   0  0  0  0  0  0  0  0  0  0  0  0
   29.0730   40.1213   68.1833 O   0  0  0  0  0  0  0  0  0  0  0  0
   31.0394   39.4178   67.0449 C   0  0  0  0  0  0  0  0  0  0  0  0
   31.8002   39.4103   68.3457 C   0  0  2  0  0  0  0  0  0  0  0  0
   32.8303   39.1044   68.1624 H   0  0  0  0  0  0  0  0  0  0  0  0
   31.1677   38.4670   69.2774 N   0  3  0  0  0  0  0  0  0  0  0  0
   31.6771   38.4620   70.1484 H   0  0  0  0  0  0  0  0  0  0  0  0
   30.2142   38.7502   69.4471 H   0  0  0  0  0  0  0  0  0  0  0  0
   31.1774   37.5410   68.8768 H   0  0  0  0  0  0  0  0  0  0  0  0
   31.7858   40.7933   68.9441 C   0  0  0  0  0  0  0  0  0  0  0  0
   32.8347   41.3811   69.1461 O   0  0  0  0  0  0  0  0  0  0  0  0
   30.7252   41.3245   69.2263 O   0  0  0  0  0  1  0  0  0  0  0  0
   31.6778   39.0726   65.8693 C   0  0  0  0  0  0  0  0  0  0  0  0
   30.4369   39.7596   62.1582 H   0  0  0  0  0  0  0  0  0  0  0  0
   31.4392   38.4569   61.4752 H   0  0  0  0  0  0  0  0  0  0  0  0
   29.9851   38.0581   62.4212 H   0  0  0  0  0  0  0  0  0  0  0  0
   29.0913   39.4385   63.7229 H   0  0  0  0  0  0  0  0  0  0  0  0
   27.9567   40.0632   65.8155 H   0  0  0  0  0  0  0  0  0  0  0  0
   28.1416   40.3554   68.0709 H   0  0  0  0  0  0  0  0  0  0  0  0
   32.7222   38.7978   65.8824 H   0  0  0  0  0  0  0  0  0  0  0  0
  1  2  1  0  0  0  0
  1 19  1  0  0  0  0
  1 20  1  0  0  0  0
  1 21  1  0  0  0  0
  2  3  1  0  0  0  0
  3 18  2  0  0  0  0
  3  4  1  0  0  0  0
  4  5  2  0  0  0  0
  4 22  1  0  0  0  0
  5  6  1  0  0  0  0
  5 23  1  0  0  0  0
  6  7  1  0  0  0  0
  6  8  2  0  0  0  0
  7 24  1  0  0  0  0
  8  9  1  0  0  0  0
  8 18  1  0  0  0  0
  9 10  1  6  0  0  0
  9 11  1  0  0  0  0
  9 15  1  0  0  0  0
 11 12  1  0  0  0  0
 11 13  1  0  0  0  0
 11 14  1  0  0  0  0
 15 16  2  0  0  0  0
 15 17  1  0  0  0  0
 18 25  1  0  0  0  0
M  CHG  1  11   1
M  END
$$$$
