ZINC000000050816      none
 OpenBabel11202420153D

 38 40  0  0  0  0  0  0  0  0999 V2000
   34.7985   32.3105   55.6288 C   0  0  0  0  0  0  0  0  0  0  0  0
   34.9285   33.3122   54.7946 C   0  0  0  0  0  0  0  0  0  0  0  0
   33.7192   34.1119   54.3833 C   0  0  0  0  0  0  0  0  0  0  0  0
   33.9101   35.5525   54.7825 C   0  0  0  0  0  0  0  0  0  0  0  0
   34.5110   36.4358   53.9104 C   0  0  0  0  0  0  0  0  0  0  0  0
   34.6889   37.7663   54.2625 C   0  0  0  0  0  0  0  0  0  0  0  0
   34.2806   38.2199   55.4838 C   0  0  0  0  0  0  0  0  0  0  0  0
   33.6717   37.3378   56.3889 C   0  0  0  0  0  0  0  0  0  0  0  0
   33.2446   37.8016   57.6589 C   0  0  0  0  0  0  0  0  0  0  0  0
   32.6471   36.9048   58.5277 C   0  0  0  0  0  0  0  0  0  0  0  0
   32.1874   37.3417   59.8565 C   0  0  0  0  0  0  0  0  0  0  0  0
   32.3314   38.4998   60.1995 O   0  0  0  0  0  0  0  0  0  0  0  0
   31.6070   36.4584   60.6929 N   0  0  0  0  0  0  0  0  0  0  0  0
   31.1704   36.8734   61.9550 C   0  0  0  0  0  0  0  0  0  0  0  0
   31.1559   35.9771   63.0158 C   0  0  0  0  0  0  0  0  0  0  0  0
   30.7277   36.3911   64.2619 C   0  0  0  0  0  0  0  0  0  0  0  0
   30.3051   37.6941   64.4517 C   0  0  0  0  0  0  0  0  0  0  0  0
   30.3138   38.5876   63.3964 C   0  0  0  0  0  0  0  0  0  0  0  0
   30.7448   38.1812   62.1490 C   0  0  0  0  0  0  0  0  0  0  0  0
   32.4794   35.5110   58.1005 C   0  0  0  0  0  0  0  0  0  0  0  0
   31.9573   34.7057   58.8483 O   0  0  0  0  0  0  0  0  0  0  0  0
   32.9017   35.1220   56.8860 O   0  0  0  0  0  0  0  0  0  0  0  0
   33.4855   35.9898   56.0321 C   0  0  0  0  0  0  0  0  0  0  0  0
   33.8248   32.0577   56.0217 H   0  0  0  0  0  0  0  0  0  0  0  0
   35.6651   31.7373   55.9235 H   0  0  0  0  0  0  0  0  0  0  0  0
   35.9022   33.5648   54.4016 H   0  0  0  0  0  0  0  0  0  0  0  0
   33.5918   34.0482   53.3027 H   0  0  0  0  0  0  0  0  0  0  0  0
   32.8338   33.7121   54.8777 H   0  0  0  0  0  0  0  0  0  0  0  0
   34.8425   36.0897   52.9426 H   0  0  0  0  0  0  0  0  0  0  0  0
   35.1575   38.4468   53.5670 H   0  0  0  0  0  0  0  0  0  0  0  0
   34.4264   39.2556   55.7528 H   0  0  0  0  0  0  0  0  0  0  0  0
   33.3825   38.8345   57.9427 H   0  0  0  0  0  0  0  0  0  0  0  0
   31.4922   35.5349   60.4193 H   0  0  0  0  0  0  0  0  0  0  0  0
   31.4819   34.9583   62.8672 H   0  0  0  0  0  0  0  0  0  0  0  0
   30.7198   35.6956   65.0881 H   0  0  0  0  0  0  0  0  0  0  0  0
   29.9673   38.0143   65.4263 H   0  0  0  0  0  0  0  0  0  0  0  0
   29.9828   39.6045   63.5480 H   0  0  0  0  0  0  0  0  0  0  0  0
   30.7508   38.8795   61.3251 H   0  0  0  0  0  0  0  0  0  0  0  0
  1  2  2  0  0  0  0
  1 24  1  0  0  0  0
  1 25  1  0  0  0  0
  2  3  1  0  0  0  0
  2 26  1  0  0  0  0
  3  4  1  0  0  0  0
  3 27  1  0  0  0  0
  3 28  1  0  0  0  0
  4 23  2  0  0  0  0
  4  5  1  0  0  0  0
  5  6  2  0  0  0  0
  5 29  1  0  0  0  0
  6  7  1  0  0  0  0
  6 30  1  0  0  0  0
  7  8  2  0  0  0  0
  7 31  1  0  0  0  0
  8 23  1  0  0  0  0
  8  9  1  0  0  0  0
  9 10  2  0  0  0  0
  9 32  1  0  0  0  0
 10 11  1  0  0  0  0
 10 20  1  0  0  0  0
 11 12  2  0  0  0  0
 11 13  1  0  0  0  0
 13 14  1  0  0  0  0
 13 33  1  0  0  0  0
 14 19  2  0  0  0  0
 14 15  1  0  0  0  0
 15 16  2  0  0  0  0
 15 34  1  0  0  0  0
 16 17  1  0  0  0  0
 16 35  1  0  0  0  0
 17 18  2  0  0  0  0
 17 36  1  0  0  0  0
 18 19  1  0  0  0  0
 18 37  1  0  0  0  0
 19 38  1  0  0  0  0
 20 21  2  0  0  0  0
 20 22  1  0  0  0  0
 22 23  1  0  0  0  0
M  END
$$$$
