ZINC000000027921      none
 OpenBabel11202420153D

 26 27  0  0  0  0  0  0  0  0999 V2000
   34.1180   39.7917   56.0238 C   0  0  0  0  0  0  0  0  0  0  0  0
   33.5620   38.8428   57.0541 C   0  0  0  0  0  0  0  0  0  0  0  0
   33.3850   37.5032   56.7327 C   0  0  0  0  0  0  0  0  0  0  0  0
   32.8837   36.6277   57.6508 C   0  0  0  0  0  0  0  0  0  0  0  0
   32.6977   35.1773   57.2861 C   0  0  0  0  0  0  0  0  0  0  0  0
   32.5356   37.0794   58.9333 C   0  0  0  0  0  0  0  0  0  0  0  0
   32.0437   36.2164   59.8426 N   0  0  0  0  0  0  0  0  0  0  0  0
   31.7188   36.6141   61.0393 C   0  0  0  0  0  0  0  0  0  0  0  0
   31.1660   35.6266   62.0344 C   0  0  0  0  0  0  0  0  0  0  0  0
   31.8885   38.0201   61.4221 C   0  0  0  0  0  0  0  0  0  0  0  0
   31.5849   38.3955   62.5400 O   0  0  0  0  0  0  0  0  0  0  0  0
   32.3853   38.8937   60.5189 N   0  0  0  0  0  0  0  0  0  0  0  0
   32.5052   39.8277   60.7514 H   0  0  0  0  0  0  0  0  0  0  0  0
   32.7191   38.4359   59.2601 C   0  0  0  0  0  0  0  0  0  0  0  0
   33.2328   39.3108   58.3072 C   0  0  0  0  0  0  0  0  0  0  0  0
   33.2992   40.2247   55.4492 H   0  0  0  0  0  0  0  0  0  0  0  0
   34.6715   40.5868   56.5234 H   0  0  0  0  0  0  0  0  0  0  0  0
   34.7855   39.2500   55.3537 H   0  0  0  0  0  0  0  0  0  0  0  0
   33.6473   37.1510   55.7460 H   0  0  0  0  0  0  0  0  0  0  0  0
   33.6059   34.6235   57.5240 H   0  0  0  0  0  0  0  0  0  0  0  0
   32.4907   35.0946   56.2191 H   0  0  0  0  0  0  0  0  0  0  0  0
   31.8620   34.7649   57.8515 H   0  0  0  0  0  0  0  0  0  0  0  0
   30.0800   35.5925   61.9475 H   0  0  0  0  0  0  0  0  0  0  0  0
   31.5780   34.6379   61.8324 H   0  0  0  0  0  0  0  0  0  0  0  0
   31.4403   35.9352   63.0432 H   0  0  0  0  0  0  0  0  0  0  0  0
   33.3726   40.3539   58.5495 H   0  0  0  0  0  0  0  0  0  0  0  0
  1  2  1  0  0  0  0
  1 16  1  0  0  0  0
  1 17  1  0  0  0  0
  1 18  1  0  0  0  0
  2 15  2  0  0  0  0
  2  3  1  0  0  0  0
  3  4  2  0  0  0  0
  3 19  1  0  0  0  0
  4  5  1  0  0  0  0
  4  6  1  0  0  0  0
  5 20  1  0  0  0  0
  5 21  1  0  0  0  0
  5 22  1  0  0  0  0
  6 14  2  0  0  0  0
  6  7  1  0  0  0  0
  7  8  2  0  0  0  0
  8  9  1  0  0  0  0
  8 10  1  0  0  0  0
  9 23  1  0  0  0  0
  9 24  1  0  0  0  0
  9 25  1  0  0  0  0
 10 11  2  0  0  0  0
 10 12  1  0  0  0  0
 12 13  1  0  0  0  0
 12 14  1  0  0  0  0
 14 15  1  0  0  0  0
 15 26  1  0  0  0  0
M  END
$$$$
