ZINC000000053412      none
 OpenBabel11202420153D

 18 18  0  0  0  0  0  0  0  0999 V2000
   33.4428   36.5708   55.8984 C   0  0  0  0  0  0  0  0  0  0  0  0
   33.1461   37.3034   57.1815 C   0  0  0  0  0  0  0  0  0  0  0  0
   33.3529   38.6682   57.2735 C   0  0  0  0  0  0  0  0  0  0  0  0
   33.0666   39.3022   58.4750 C   0  0  0  0  0  0  0  0  0  0  0  0
   32.5879   38.5582   59.5350 C   0  0  0  0  0  0  0  0  0  0  0  0
   32.4002   37.2573   59.4186 N   0  0  0  0  0  0  0  0  0  0  0  0
   32.6611   36.6165   58.2895 C   0  0  0  0  0  0  0  0  0  0  0  0
   32.4486   35.2451   58.2110 N   0  0  0  0  0  0  0  0  0  0  0  0
   31.9605   34.5470   59.3234 N   0  0  0  0  0  0  0  0  0  0  0  0
   32.5913   34.5439   60.3652 O   0  0  0  0  0  0  0  0  0  0  0  0
   30.9055   33.9431   59.2484 O   0  0  0  0  0  0  0  0  0  0  0  0
   32.5515   36.5611   55.2710 H   0  0  0  0  0  0  0  0  0  0  0  0
   34.2528   37.0749   55.3712 H   0  0  0  0  0  0  0  0  0  0  0  0
   33.7388   35.5465   56.1250 H   0  0  0  0  0  0  0  0  0  0  0  0
   33.7284   39.2279   56.4297 H   0  0  0  0  0  0  0  0  0  0  0  0
   33.2168   40.3666   58.5796 H   0  0  0  0  0  0  0  0  0  0  0  0
   32.3599   39.0480   60.4702 H   0  0  0  0  0  0  0  0  0  0  0  0
   32.6383   34.7713   57.3860 H   0  0  0  0  0  0  0  0  0  0  0  0
  1  2  1  0  0  0  0
  1 12  1  0  0  0  0
  1 13  1  0  0  0  0
  1 14  1  0  0  0  0
  2  7  2  0  0  0  0
  2  3  1  0  0  0  0
  3  4  2  0  0  0  0
  3 15  1  0  0  0  0
  4  5  1  0  0  0  0
  4 16  1  0  0  0  0
  5  6  2  0  0  0  0
  5 17  1  0  0  0  0
  6  7  1  0  0  0  0
  7  8  1  0  0  0  0
  8  9  1  0  0  0  0
  8 18  1  0  0  0  0
  9 10  2  0  0  0  0
  9 11  2  0  0  0  0
M  END
$$$$
