ZINC000000032316      none
 OpenBabel11202420153D

 30 31  0  0  1  0  0  0  0  0999 V2000
   32.3786   33.9407   60.7526 C   0  0  0  0  0  0  0  0  0  0  0  0
   32.0140   35.2623   60.3494 O   0  0  0  0  0  0  0  0  0  0  0  0
   30.6990   35.6507   60.7520 C   0  0  0  0  0  0  0  0  0  0  0  0
   30.4179   37.0751   60.2693 C   0  0  2  0  0  0  0  0  0  0  0  0
   29.3461   37.2711   60.2414 H   0  0  0  0  0  0  0  0  0  0  0  0
   31.0330   37.3159   58.9492 N   0  0  0  0  0  0  0  0  0  0  0  0
   32.0974   38.0187   59.1157 C   0  0  0  0  0  0  0  0  0  0  0  0
   32.9752   38.4598   57.9730 C   0  0  0  0  0  0  0  0  0  0  0  0
   32.3585   38.3259   60.4000 O   0  0  0  0  0  0  0  0  0  0  0  0
   31.1479   38.1140   61.1556 C   0  0  2  0  0  0  0  0  0  0  0  0
   30.5706   39.0351   61.2375 H   0  0  0  0  0  0  0  0  0  0  0  0
   31.4518   37.5460   62.5181 C   0  0  0  0  0  0  0  0  0  0  0  0
   30.5364   37.6844   63.5446 C   0  0  0  0  0  0  0  0  0  0  0  0
   30.8178   37.1685   64.7958 C   0  0  0  0  0  0  0  0  0  0  0  0
   32.0096   36.5043   65.0175 C   0  0  0  0  0  0  0  0  0  0  0  0
   32.9252   36.3663   63.9911 C   0  0  0  0  0  0  0  0  0  0  0  0
   32.6462   36.8869   62.7413 C   0  0  0  0  0  0  0  0  0  0  0  0
   31.6837   33.2230   60.3166 H   0  0  0  0  0  0  0  0  0  0  0  0
   33.3898   33.7220   60.4090 H   0  0  0  0  0  0  0  0  0  0  0  0
   32.3407   33.8690   61.8395 H   0  0  0  0  0  0  0  0  0  0  0  0
   30.6263   35.6144   61.8389 H   0  0  0  0  0  0  0  0  0  0  0  0
   29.9693   34.9685   60.3160 H   0  0  0  0  0  0  0  0  0  0  0  0
   33.7406   37.7055   57.7906 H   0  0  0  0  0  0  0  0  0  0  0  0
   32.3683   38.5857   57.0763 H   0  0  0  0  0  0  0  0  0  0  0  0
   33.4516   39.4071   58.2254 H   0  0  0  0  0  0  0  0  0  0  0  0
   29.6034   38.1998   63.3702 H   0  0  0  0  0  0  0  0  0  0  0  0
   30.1044   37.2804   65.5989 H   0  0  0  0  0  0  0  0  0  0  0  0
   32.2275   36.0972   65.9938 H   0  0  0  0  0  0  0  0  0  0  0  0
   33.8584   35.8512   64.1654 H   0  0  0  0  0  0  0  0  0  0  0  0
   33.3615   36.7790   61.9394 H   0  0  0  0  0  0  0  0  0  0  0  0
  1  2  1  0  0  0  0
  1 18  1  0  0  0  0
  1 19  1  0  0  0  0
  1 20  1  0  0  0  0
  2  3  1  0  0  0  0
  3  4  1  0  0  0  0
  3 21  1  0  0  0  0
  3 22  1  0  0  0  0
  4  5  1  6  0  0  0
  4 10  1  0  0  0  0
  4  6  1  0  0  0  0
  6  7  2  0  0  0  0
  7  8  1  0  0  0  0
  7  9  1  0  0  0  0
  8 23  1  0  0  0  0
  8 24  1  0  0  0  0
  8 25  1  0  0  0  0
  9 10  1  0  0  0  0
 10 11  1  1  0  0  0
 10 12  1  0  0  0  0
 12 17  2  0  0  0  0
 12 13  1  0  0  0  0
 13 14  2  0  0  0  0
 13 26  1  0  0  0  0
 14 15  1  0  0  0  0
 14 27  1  0  0  0  0
 15 16  2  0  0  0  0
 15 28  1  0  0  0  0
 16 17  1  0  0  0  0
 16 29  1  0  0  0  0
 17 30  1  0  0  0  0
M  END
$$$$
