ZINC000000028298      none
 OpenBabel11202420163D

 23 24  0  0  0  0  0  0  0  0999 V2000
   30.6444   33.0020   62.5172 O   0  0  0  0  0  0  0  0  0  0  0  0
   31.0746   34.0480   62.0787 C   0  0  0  0  0  0  0  0  0  0  0  0
   31.6783   35.1082   62.9878 C   0  0  0  0  0  0  0  0  0  0  0  0
   30.5711   35.7495   63.8227 C   0  0  0  0  0  0  0  0  0  0  0  0
   30.0351   37.0124   63.1518 C   0  0  0  0  0  0  0  0  0  0  0  0
   29.5172   36.6880   61.7546 C   0  0  0  0  0  0  0  0  0  0  0  0
   30.6618   36.7300   60.7621 C   0  0  0  0  0  0  0  0  0  0  0  0
   31.3339   38.1883   60.0469 S   0  0  0  0  0  0  0  0  0  0  0  0
   32.4555   37.2372   59.0846 C   0  0  0  0  0  0  0  0  0  0  0  0
   32.2881   35.9455   59.3492 C   0  0  0  0  0  0  0  0  0  0  0  0
   31.3104   35.6459   60.3030 C   0  0  0  0  0  0  0  0  0  0  0  0
   31.0425   34.3315   60.7548 N   0  0  0  0  0  0  0  0  0  0  0  0
   32.4110   34.6459   63.6492 H   0  0  0  0  0  0  0  0  0  0  0  0
   32.1660   35.8719   62.3820 H   0  0  0  0  0  0  0  0  0  0  0  0
   29.7565   35.0356   63.9444 H   0  0  0  0  0  0  0  0  0  0  0  0
   30.9682   36.0079   64.8044 H   0  0  0  0  0  0  0  0  0  0  0  0
   30.8342   37.7501   63.0783 H   0  0  0  0  0  0  0  0  0  0  0  0
   29.2227   37.4223   63.7518 H   0  0  0  0  0  0  0  0  0  0  0  0
   28.7623   37.4205   61.4687 H   0  0  0  0  0  0  0  0  0  0  0  0
   29.0736   35.6924   61.7545 H   0  0  0  0  0  0  0  0  0  0  0  0
   33.1715   37.6411   58.3841 H   0  0  0  0  0  0  0  0  0  0  0  0
   32.8689   35.1778   58.8595 H   0  0  0  0  0  0  0  0  0  0  0  0
   30.8359   33.6324   60.1149 H   0  0  0  0  0  0  0  0  0  0  0  0
  1  2  2  0  0  0  0
  2 12  1  0  0  0  0
  2  3  1  0  0  0  0
  3  4  1  0  0  0  0
  3 13  1  0  0  0  0
  3 14  1  0  0  0  0
  4  5  1  0  0  0  0
  4 15  1  0  0  0  0
  4 16  1  0  0  0  0
  5  6  1  0  0  0  0
  5 17  1  0  0  0  0
  5 18  1  0  0  0  0
  6  7  1  0  0  0  0
  6 19  1  0  0  0  0
  6 20  1  0  0  0  0
  7 11  2  0  0  0  0
  7  8  1  0  0  0  0
  8  9  1  0  0  0  0
  9 10  2  0  0  0  0
  9 21  1  0  0  0  0
 10 11  1  0  0  0  0
 10 22  1  0  0  0  0
 11 12  1  0  0  0  0
 12 23  1  0  0  0  0
M  END
$$$$
