ZINC000000002108      none
 OpenBabel11202420153D

 38 39  0  0  0  0  0  0  0  0999 V2000
   28.7983   39.8154   66.6621 C   0  0  0  0  0  0  0  0  0  0  0  0
   29.7931   40.3864   67.6747 C   0  0  0  0  0  0  0  0  0  0  0  0
   31.0361   39.5344   67.6930 C   0  0  0  0  0  0  0  0  0  0  0  0
   32.0394   39.8466   68.4973 N   0  0  0  0  0  0  0  0  0  0  0  0
   33.1327   39.1016   68.5170 C   0  0  0  0  0  0  0  0  0  0  0  0
   34.2724   39.4618   69.4349 C   0  0  0  0  0  0  0  0  0  0  0  0
   33.9110   40.7198   70.2271 C   0  0  0  0  0  0  0  0  0  0  0  0
   33.2265   38.0426   67.7334 N   0  0  0  0  0  0  0  0  0  0  0  0
   32.2200   37.7255   66.9236 C   0  0  0  0  0  0  0  0  0  0  0  0
   32.3144   36.6202   66.1031 N   0  0  0  0  0  0  0  0  0  0  0  0
   31.0601   36.2274   65.0956 S   0  0  0  0  0  0  0  0  0  0  0  0
   29.8934   36.8079   65.6623 O   0  0  0  0  0  0  0  0  0  0  0  0
   31.1834   34.8381   64.8240 O   0  0  0  0  0  0  0  0  0  0  0  0
   31.3381   37.0596   63.5677 C   0  0  0  0  0  0  0  0  0  0  0  0
   30.8279   38.3299   63.3712 C   0  0  0  0  0  0  0  0  0  0  0  0
   31.0436   38.9849   62.1746 C   0  0  0  0  0  0  0  0  0  0  0  0
   31.7739   38.3663   61.1678 C   0  0  0  0  0  0  0  0  0  0  0  0
   31.9933   39.0257   59.9562 N   0  0  0  0  0  0  0  0  0  0  0  0
   32.2804   37.0882   61.3665 C   0  0  0  0  0  0  0  0  0  0  0  0
   32.0655   36.4410   62.5675 C   0  0  0  0  0  0  0  0  0  0  0  0
   31.1246   38.4801   66.9027 N   0  0  0  0  0  0  0  0  0  0  0  0
   29.2510   39.8119   65.6705 H   0  0  0  0  0  0  0  0  0  0  0  0
   28.5362   38.7960   66.9454 H   0  0  0  0  0  0  0  0  0  0  0  0
   27.8993   40.4316   66.6489 H   0  0  0  0  0  0  0  0  0  0  0  0
   29.3404   40.3899   68.6663 H   0  0  0  0  0  0  0  0  0  0  0  0
   30.0554   41.4057   67.3915 H   0  0  0  0  0  0  0  0  0  0  0  0
   34.4574   38.6384   70.1247 H   0  0  0  0  0  0  0  0  0  0  0  0
   35.1691   39.6494   68.8443 H   0  0  0  0  0  0  0  0  0  0  0  0
   33.7262   41.5431   69.5373 H   0  0  0  0  0  0  0  0  0  0  0  0
   33.0142   40.5321   70.8177 H   0  0  0  0  0  0  0  0  0  0  0  0
   34.7353   40.9803   70.8911 H   0  0  0  0  0  0  0  0  0  0  0  0
   33.1153   36.0732   66.1164 H   0  0  0  0  0  0  0  0  0  0  0  0
   30.2599   38.8101   64.1542 H   0  0  0  0  0  0  0  0  0  0  0  0
   30.6445   39.9767   62.0217 H   0  0  0  0  0  0  0  0  0  0  0  0
   31.6358   39.9166   59.8171 H   0  0  0  0  0  0  0  0  0  0  0  0
   32.5068   38.5943   59.2553 H   0  0  0  0  0  0  0  0  0  0  0  0
   32.8448   36.6027   60.5841 H   0  0  0  0  0  0  0  0  0  0  0  0
   32.4626   35.4489   62.7242 H   0  0  0  0  0  0  0  0  0  0  0  0
  1  2  1  0  0  0  0
  1 22  1  0  0  0  0
  1 23  1  0  0  0  0
  1 24  1  0  0  0  0
  2  3  1  0  0  0  0
  2 25  1  0  0  0  0
  2 26  1  0  0  0  0
  3 21  2  0  0  0  0
  3  4  1  0  0  0  0
  4  5  2  0  0  0  0
  5  6  1  0  0  0  0
  5  8  1  0  0  0  0
  6  7  1  0  0  0  0
  6 27  1  0  0  0  0
  6 28  1  0  0  0  0
  7 29  1  0  0  0  0
  7 30  1  0  0  0  0
  7 31  1  0  0  0  0
  8  9  2  0  0  0  0
  9 10  1  0  0  0  0
  9 21  1  0  0  0  0
 10 11  1  0  0  0  0
 10 32  1  0  0  0  0
 11 12  2  0  0  0  0
 11 13  2  0  0  0  0
 11 14  1  0  0  0  0
 14 20  2  0  0  0  0
 14 15  1  0  0  0  0
 15 16  2  0  0  0  0
 15 33  1  0  0  0  0
 16 17  1  0  0  0  0
 16 34  1  0  0  0  0
 17 18  1  0  0  0  0
 17 19  2  0  0  0  0
 18 35  1  0  0  0  0
 18 36  1  0  0  0  0
 19 20  1  0  0  0  0
 19 37  1  0  0  0  0
 20 38  1  0  0  0  0
M  END
$$$$
