ZINC000000029155      none
 OpenBabel11202420163D

 22 22  0  0  0  0  0  0  0  0999 V2000
   30.8257   34.1641   62.9960 C   0  0  0  0  0  0  0  0  0  0  0  0
   32.0023   33.6998   62.1350 C   0  0  0  0  0  0  0  0  0  0  0  0
   32.4431   34.8014   61.2757 N   0  0  0  0  0  0  0  0  0  0  0  0
   31.7692   35.0836   60.1431 C   0  0  0  0  0  0  0  0  0  0  0  0
   30.7987   34.4209   59.8320 O   0  0  0  0  0  0  0  0  0  0  0  0
   32.2100   36.1981   59.2798 C   0  0  0  0  0  0  0  0  0  0  0  0
   32.5902   35.9537   57.9583 C   0  0  0  0  0  0  0  0  0  0  0  0
   32.9952   36.9987   57.1559 C   0  0  0  0  0  0  0  0  0  0  0  0
   33.0373   38.2886   57.6607 C   0  0  0  0  0  0  0  0  0  0  0  0
   33.5557   39.5976   56.6449 Cl  0  0  0  0  0  0  0  0  0  0  0  0
   32.6675   38.5379   58.9709 C   0  0  0  0  0  0  0  0  0  0  0  0
   32.2540   37.5008   59.7835 C   0  0  0  0  0  0  0  0  0  0  0  0
   31.7904   37.8144   61.4268 Cl  0  0  0  0  0  0  0  0  0  0  0  0
   30.4977   33.3445   63.6354 H   0  0  0  0  0  0  0  0  0  0  0  0
   31.1382   35.0052   63.6149 H   0  0  0  0  0  0  0  0  0  0  0  0
   30.0032   34.4733   62.3510 H   0  0  0  0  0  0  0  0  0  0  0  0
   31.6898   32.8586   61.5161 H   0  0  0  0  0  0  0  0  0  0  0  0
   32.8247   33.3906   62.7800 H   0  0  0  0  0  0  0  0  0  0  0  0
   33.2175   35.3301   61.5239 H   0  0  0  0  0  0  0  0  0  0  0  0
   32.5623   34.9485   57.5645 H   0  0  0  0  0  0  0  0  0  0  0  0
   33.2850   36.8110   56.1326 H   0  0  0  0  0  0  0  0  0  0  0  0
   32.7022   39.5454   59.3585 H   0  0  0  0  0  0  0  0  0  0  0  0
  1  2  1  0  0  0  0
  1 14  1  0  0  0  0
  1 15  1  0  0  0  0
  1 16  1  0  0  0  0
  2  3  1  0  0  0  0
  2 17  1  0  0  0  0
  2 18  1  0  0  0  0
  3  4  1  0  0  0  0
  3 19  1  0  0  0  0
  4  5  2  0  0  0  0
  4  6  1  0  0  0  0
  6 12  2  0  0  0  0
  6  7  1  0  0  0  0
  7  8  2  0  0  0  0
  7 20  1  0  0  0  0
  8  9  1  0  0  0  0
  8 21  1  0  0  0  0
  9 10  1  0  0  0  0
  9 11  2  0  0  0  0
 11 12  1  0  0  0  0
 11 22  1  0  0  0  0
 12 13  1  0  0  0  0
M  END
$$$$
