ZINC000000043702      none
 OpenBabel11202420153D

 31 33  0  0  0  0  0  0  0  0999 V2000
   30.7709   38.8232   64.9152 O   0  0  0  0  0  0  0  0  0  0  0  0
   30.8653   38.6079   63.7209 C   0  0  0  0  0  0  0  0  0  0  0  0
   30.3650   39.3411   62.7081 O   0  0  0  0  0  0  0  0  0  0  0  0
   30.6102   38.8921   61.6195 N   0  0  0  0  0  0  0  0  0  0  0  0
   31.3126   37.7939   61.6222 C   0  0  0  0  0  0  0  0  0  0  0  0
   31.7710   37.0186   60.4445 C   0  0  0  0  0  0  0  0  0  0  0  0
   31.3789   35.6902   60.2855 C   0  0  0  0  0  0  0  0  0  0  0  0
   31.8052   34.9749   59.1851 C   0  0  0  0  0  0  0  0  0  0  0  0
   32.6282   35.5704   58.2461 C   0  0  0  0  0  0  0  0  0  0  0  0
   33.0243   36.8867   58.4011 C   0  0  0  0  0  0  0  0  0  0  0  0
   32.6004   37.6134   59.4950 C   0  0  0  0  0  0  0  0  0  0  0  0
   31.5543   37.4814   63.0548 C   0  0  0  0  0  0  0  0  0  0  0  0
   32.2439   36.4243   63.6146 C   0  0  0  0  0  0  0  0  0  0  0  0
   32.2235   36.2229   65.0637 C   0  0  0  0  0  0  0  0  0  0  0  0
   33.1978   36.8273   65.8727 C   0  0  0  0  0  0  0  0  0  0  0  0
   33.1732   36.6358   67.2246 C   0  0  0  0  0  0  0  0  0  0  0  0
   32.1849   35.8431   67.8002 C   0  0  0  0  0  0  0  0  0  0  0  0
   32.1662   35.6561   69.1436 O   0  0  0  0  0  0  0  0  0  0  0  0
   31.2191   35.2366   67.0027 C   0  0  0  0  0  0  0  0  0  0  0  0
   31.2295   35.4250   65.6501 C   0  0  0  0  0  0  0  0  0  0  0  0
   30.7397   35.2230   61.0201 H   0  0  0  0  0  0  0  0  0  0  0  0
   31.4994   33.9468   59.0591 H   0  0  0  0  0  0  0  0  0  0  0  0
   32.9624   35.0055   57.3883 H   0  0  0  0  0  0  0  0  0  0  0  0
   33.6669   37.3465   57.6648 H   0  0  0  0  0  0  0  0  0  0  0  0
   32.9103   38.6410   59.6150 H   0  0  0  0  0  0  0  0  0  0  0  0
   32.7984   35.7461   62.9829 H   0  0  0  0  0  0  0  0  0  0  0  0
   33.9653   37.4428   65.4272 H   0  0  0  0  0  0  0  0  0  0  0  0
   33.9225   37.1005   67.8485 H   0  0  0  0  0  0  0  0  0  0  0  0
   32.8774   36.1122   69.6141 H   0  0  0  0  0  0  0  0  0  0  0  0
   30.4572   34.6193   67.4550 H   0  0  0  0  0  0  0  0  0  0  0  0
   30.4768   34.9575   65.0329 H   0  0  0  0  0  0  0  0  0  0  0  0
  1  2  2  0  0  0  0
  2 12  1  0  0  0  0
  2  3  1  0  0  0  0
  3  4  1  0  0  0  0
  4  5  2  0  0  0  0
  5  6  1  0  0  0  0
  5 12  1  0  0  0  0
  6 11  2  0  0  0  0
  6  7  1  0  0  0  0
  7  8  2  0  0  0  0
  7 21  1  0  0  0  0
  8  9  1  0  0  0  0
  8 22  1  0  0  0  0
  9 10  2  0  0  0  0
  9 23  1  0  0  0  0
 10 11  1  0  0  0  0
 10 24  1  0  0  0  0
 11 25  1  0  0  0  0
 12 13  2  0  0  0  0
 13 14  1  0  0  0  0
 13 26  1  0  0  0  0
 14 20  2  0  0  0  0
 14 15  1  0  0  0  0
 15 16  2  0  0  0  0
 15 27  1  0  0  0  0
 16 17  1  0  0  0  0
 16 28  1  0  0  0  0
 17 18  1  0  0  0  0
 17 19  2  0  0  0  0
 18 29  1  0  0  0  0
 19 20  1  0  0  0  0
 19 30  1  0  0  0  0
 20 31  1  0  0  0  0
M  END
$$$$
