ZINC000000029716      none
 OpenBabel11202420163D

 29 30  0  0  0  0  0  0  0  0999 V2000
   32.1533   38.7927   60.0243 O   0  0  0  0  0  0  0  0  0  0  0  0
   31.8662   37.7181   59.5340 C   0  0  0  0  0  0  0  0  0  0  0  0
   30.9034   36.9582   60.0927 N   0  0  0  0  0  0  0  0  0  0  0  0
   30.2029   37.4273   61.2908 C   0  0  0  0  0  0  0  0  0  0  0  0
   30.9370   36.9550   62.5191 C   0  0  0  0  0  0  0  0  0  0  0  0
   30.9025   37.7086   63.6775 C   0  0  0  0  0  0  0  0  0  0  0  0
   31.5720   37.2728   64.8057 C   0  0  0  0  0  0  0  0  0  0  0  0
   32.2842   36.0885   64.7726 C   0  0  0  0  0  0  0  0  0  0  0  0
   32.3234   35.3377   63.6126 C   0  0  0  0  0  0  0  0  0  0  0  0
   31.6496   35.7708   62.4859 C   0  0  0  0  0  0  0  0  0  0  0  0
   32.5731   37.2447   58.3249 C   0  0  0  0  0  0  0  0  0  0  0  0
   32.6938   35.8769   58.0740 C   0  0  0  0  0  0  0  0  0  0  0  0
   33.3549   35.4410   56.9444 C   0  0  0  0  0  0  0  0  0  0  0  0
   33.8977   36.3561   56.0601 C   0  0  0  0  0  0  0  0  0  0  0  0
   33.7823   37.7143   56.3026 C   0  0  0  0  0  0  0  0  0  0  0  0
   34.4672   38.8549   55.1875 Cl  0  0  0  0  0  0  0  0  0  0  0  0
   33.1229   38.1633   57.4299 C   0  0  0  0  0  0  0  0  0  0  0  0
   30.6742   36.1007   59.7015 H   0  0  0  0  0  0  0  0  0  0  0  0
   30.1652   38.5167   61.2865 H   0  0  0  0  0  0  0  0  0  0  0  0
   29.1885   37.0288   61.2980 H   0  0  0  0  0  0  0  0  0  0  0  0
   30.3495   38.6359   63.7021 H   0  0  0  0  0  0  0  0  0  0  0  0
   31.5416   37.8596   65.7120 H   0  0  0  0  0  0  0  0  0  0  0  0
   32.8103   35.7498   65.6530 H   0  0  0  0  0  0  0  0  0  0  0  0
   32.8800   34.4127   63.5865 H   0  0  0  0  0  0  0  0  0  0  0  0
   31.6801   35.1843   61.5795 H   0  0  0  0  0  0  0  0  0  0  0  0
   32.2707   35.1610   58.7633 H   0  0  0  0  0  0  0  0  0  0  0  0
   33.4487   34.3828   56.7497 H   0  0  0  0  0  0  0  0  0  0  0  0
   34.4142   36.0096   55.1773 H   0  0  0  0  0  0  0  0  0  0  0  0
   33.0290   39.2231   57.6160 H   0  0  0  0  0  0  0  0  0  0  0  0
  1  2  2  0  0  0  0
  2  3  1  0  0  0  0
  2 11  1  0  0  0  0
  3  4  1  0  0  0  0
  3 18  1  0  0  0  0
  4  5  1  0  0  0  0
  4 19  1  0  0  0  0
  4 20  1  0  0  0  0
  5 10  2  0  0  0  0
  5  6  1  0  0  0  0
  6  7  2  0  0  0  0
  6 21  1  0  0  0  0
  7  8  1  0  0  0  0
  7 22  1  0  0  0  0
  8  9  2  0  0  0  0
  8 23  1  0  0  0  0
  9 10  1  0  0  0  0
  9 24  1  0  0  0  0
 10 25  1  0  0  0  0
 11 17  2  0  0  0  0
 11 12  1  0  0  0  0
 12 13  2  0  0  0  0
 12 26  1  0  0  0  0
 13 14  1  0  0  0  0
 13 27  1  0  0  0  0
 14 15  2  0  0  0  0
 14 28  1  0  0  0  0
 15 16  1  0  0  0  0
 15 17  1  0  0  0  0
 17 29  1  0  0  0  0
M  END
$$$$
