ZINC000000034100      none
 OpenBabel11202420153D

 33 35  0  0  0  0  0  0  0  0999 V2000
   31.9641   38.7766   65.6924 N   0  0  0  0  0  0  0  0  0  0  0  0
   30.6895   38.0658   64.9098 S   0  0  0  0  0  0  0  0  0  0  0  0
   29.6838   39.0629   64.7931 O   0  0  0  0  0  0  0  0  0  0  0  0
   30.4733   36.8150   65.5487 O   0  0  0  0  0  0  0  0  0  0  0  0
   31.2217   37.7015   63.2701 C   0  0  0  0  0  0  0  0  0  0  0  0
   31.0511   38.6387   62.2665 C   0  0  0  0  0  0  0  0  0  0  0  0
   31.4650   38.3602   60.9806 C   0  0  0  0  0  0  0  0  0  0  0  0
   32.0579   37.1288   60.6927 C   0  0  0  0  0  0  0  0  0  0  0  0
   32.5030   36.8232   59.3185 C   0  0  0  0  0  0  0  0  0  0  0  0
   32.9437   37.7344   58.4043 C   0  0  0  0  0  0  0  0  0  0  0  0
   33.2630   37.0266   57.2389 C   0  0  0  0  0  0  0  0  0  0  0  0
   33.0001   35.6985   57.4958 C   0  0  0  0  0  0  0  0  0  0  0  0
   33.1860   34.5891   56.5595 C   0  0  0  0  0  0  0  0  0  0  0  0
   33.6384   34.8183   55.3602 N   0  0  0  0  0  0  0  0  0  0  0  0
   33.8164   33.7562   54.4638 N   0  0  0  0  0  0  0  0  0  0  0  0
   34.9406   33.0046   54.2923 C   0  0  0  0  0  0  0  0  0  0  0  0
   34.6790   32.1246   53.3631 N   0  0  0  0  0  0  0  0  0  0  0  0
   33.4754   32.2805   52.9394 N   0  0  0  0  0  0  0  0  0  0  0  0
   32.9031   33.2651   53.5792 C   0  0  0  0  0  0  0  0  0  0  0  0
   32.5467   35.5987   58.7621 O   0  0  0  0  0  0  0  0  0  0  0  0
   32.2227   36.1856   61.7096 C   0  0  0  0  0  0  0  0  0  0  0  0
   31.8089   36.4797   62.9922 C   0  0  0  0  0  0  0  0  0  0  0  0
   31.8011   39.4232   66.3968 H   0  0  0  0  0  0  0  0  0  0  0  0
   32.8736   38.5463   65.4463 H   0  0  0  0  0  0  0  0  0  0  0  0
   30.5925   39.5906   62.4906 H   0  0  0  0  0  0  0  0  0  0  0  0
   31.3312   39.0928   60.1983 H   0  0  0  0  0  0  0  0  0  0  0  0
   33.0301   38.8009   58.5514 H   0  0  0  0  0  0  0  0  0  0  0  0
   33.6421   37.4415   56.3167 H   0  0  0  0  0  0  0  0  0  0  0  0
   32.9481   33.5804   56.8633 H   0  0  0  0  0  0  0  0  0  0  0  0
   35.8728   33.1150   54.8263 H   0  0  0  0  0  0  0  0  0  0  0  0
   31.8946   33.6233   53.4340 H   0  0  0  0  0  0  0  0  0  0  0  0
   32.6763   35.2297   61.4930 H   0  0  0  0  0  0  0  0  0  0  0  0
   31.9390   35.7529   63.7802 H   0  0  0  0  0  0  0  0  0  0  0  0
  1  2  1  0  0  0  0
  1 23  1  0  0  0  0
  1 24  1  0  0  0  0
  2  3  2  0  0  0  0
  2  4  2  0  0  0  0
  2  5  1  0  0  0  0
  5 22  2  0  0  0  0
  5  6  1  0  0  0  0
  6  7  2  0  0  0  0
  6 25  1  0  0  0  0
  7  8  1  0  0  0  0
  7 26  1  0  0  0  0
  8  9  1  0  0  0  0
  8 21  2  0  0  0  0
  9 20  1  0  0  0  0
  9 10  2  0  0  0  0
 10 11  1  0  0  0  0
 10 27  1  0  0  0  0
 11 12  2  0  0  0  0
 11 28  1  0  0  0  0
 12 13  1  0  0  0  0
 12 20  1  0  0  0  0
 13 14  2  0  0  0  0
 13 29  1  0  0  0  0
 14 15  1  0  0  0  0
 15 19  1  0  0  0  0
 15 16  1  0  0  0  0
 16 17  2  0  0  0  0
 16 30  1  0  0  0  0
 17 18  1  0  0  0  0
 18 19  2  0  0  0  0
 19 31  1  0  0  0  0
 21 22  1  0  0  0  0
 21 32  1  0  0  0  0
 22 33  1  0  0  0  0
M  END
$$$$
