ZINC000000034381      none
 OpenBabel11202420153D

 41 44  0  0  0  0  0  0  0  0999 V2000
   29.1147   36.7422   64.5982 O   0  0  0  0  0  0  0  0  0  0  0  0
   30.3189   36.8400   64.4451 C   0  0  0  0  0  0  0  0  0  0  0  0
   31.1339   37.2958   65.5110 C   0  0  0  0  0  0  0  0  0  0  0  0
   32.1473   38.7298   65.4658 S   0  0  0  0  0  0  0  0  0  0  0  0
   32.6928   38.4418   67.1094 C   0  0  0  0  0  0  0  0  0  0  0  0
   32.1181   37.3385   67.6130 C   0  0  0  0  0  0  0  0  0  0  0  0
   31.2465   36.6860   66.7344 C   0  0  0  0  0  0  0  0  0  0  0  0
   30.5813   35.5365   67.0963 O   0  0  0  0  0  0  0  0  0  0  0  0
   31.1192   34.8761   68.2496 C   0  0  0  0  0  0  0  0  0  0  0  0
   31.3708   35.9126   69.3497 C   0  0  0  0  0  0  0  0  0  0  0  0
   32.3438   36.8599   68.8901 O   0  0  0  0  0  0  0  0  0  0  0  0
   30.8764   36.5147   63.2619 N   0  0  0  0  0  0  0  0  0  0  0  0
   30.0496   36.0337   62.1447 C   0  0  0  0  0  0  0  0  0  0  0  0
   30.3885   36.8688   60.8998 C   0  0  0  0  0  0  0  0  0  0  0  0
   31.8377   36.8216   60.6646 N   0  0  0  0  0  0  0  0  0  0  0  0
   32.1683   37.4292   59.4495 C   0  0  0  0  0  0  0  0  0  0  0  0
   32.4582   38.7867   59.4068 C   0  0  0  0  0  0  0  0  0  0  0  0
   32.7892   39.3839   58.2062 C   0  0  0  0  0  0  0  0  0  0  0  0
   32.8217   38.6317   57.0435 C   0  0  0  0  0  0  0  0  0  0  0  0
   33.1410   39.2187   55.8693 F   0  0  0  0  0  0  0  0  0  0  0  0
   32.5276   37.2798   57.0829 C   0  0  0  0  0  0  0  0  0  0  0  0
   32.2015   36.6774   58.2823 C   0  0  0  0  0  0  0  0  0  0  0  0
   32.5784   37.4317   61.7769 C   0  0  0  0  0  0  0  0  0  0  0  0
   32.3284   36.6255   63.0558 C   0  0  0  0  0  0  0  0  0  0  0  0
   33.3916   39.0686   67.6434 H   0  0  0  0  0  0  0  0  0  0  0  0
   30.4088   34.1307   68.6071 H   0  0  0  0  0  0  0  0  0  0  0  0
   32.0576   34.3883   67.9857 H   0  0  0  0  0  0  0  0  0  0  0  0
   30.4402   36.4301   69.5824 H   0  0  0  0  0  0  0  0  0  0  0  0
   31.7436   35.4120   70.2434 H   0  0  0  0  0  0  0  0  0  0  0  0
   30.2667   34.9825   61.9544 H   0  0  0  0  0  0  0  0  0  0  0  0
   28.9947   36.1537   62.3916 H   0  0  0  0  0  0  0  0  0  0  0  0
   30.0789   37.9022   61.0562 H   0  0  0  0  0  0  0  0  0  0  0  0
   29.8661   36.4592   60.0352 H   0  0  0  0  0  0  0  0  0  0  0  0
   32.4290   39.3742   60.3127 H   0  0  0  0  0  0  0  0  0  0  0  0
   33.0191   40.4386   58.1734 H   0  0  0  0  0  0  0  0  0  0  0  0
   32.5532   36.6955   56.1750 H   0  0  0  0  0  0  0  0  0  0  0  0
   31.9726   35.6223   58.3125 H   0  0  0  0  0  0  0  0  0  0  0  0
   32.2383   38.4572   61.9211 H   0  0  0  0  0  0  0  0  0  0  0  0
   33.6442   37.4303   61.5484 H   0  0  0  0  0  0  0  0  0  0  0  0
   32.7808   37.1368   63.9053 H   0  0  0  0  0  0  0  0  0  0  0  0
   32.7608   35.6300   62.9548 H   0  0  0  0  0  0  0  0  0  0  0  0
  1  2  2  0  0  0  0
  2  3  1  0  0  0  0
  2 12  1  0  0  0  0
  3  7  2  0  0  0  0
  3  4  1  0  0  0  0
  4  5  1  0  0  0  0
  5  6  2  0  0  0  0
  5 25  1  0  0  0  0
  6 11  1  0  0  0  0
  6  7  1  0  0  0  0
  7  8  1  0  0  0  0
  8  9  1  0  0  0  0
  9 10  1  0  0  0  0
  9 26  1  0  0  0  0
  9 27  1  0  0  0  0
 10 11  1  0  0  0  0
 10 28  1  0  0  0  0
 10 29  1  0  0  0  0
 12 24  1  0  0  0  0
 12 13  1  0  0  0  0
 13 14  1  0  0  0  0
 13 30  1  0  0  0  0
 13 31  1  0  0  0  0
 14 15  1  0  0  0  0
 14 32  1  0  0  0  0
 14 33  1  0  0  0  0
 15 16  1  0  0  0  0
 15 23  1  0  0  0  0
 16 22  2  0  0  0  0
 16 17  1  0  0  0  0
 17 18  2  0  0  0  0
 17 34  1  0  0  0  0
 18 19  1  0  0  0  0
 18 35  1  0  0  0  0
 19 20  1  0  0  0  0
 19 21  2  0  0  0  0
 21 22  1  0  0  0  0
 21 36  1  0  0  0  0
 22 37  1  0  0  0  0
 23 24  1  0  0  0  0
 23 38  1  0  0  0  0
 23 39  1  0  0  0  0
 24 40  1  0  0  0  0
 24 41  1  0  0  0  0
M  END
$$$$
