ZINC000000052783      none
 OpenBabel11202420153D

 30 32  0  0  0  0  0  0  0  0999 V2000
   30.1080   36.4024   62.1345 F   0  0  0  0  0  0  0  0  0  0  0  0
   30.8027   36.7439   61.0273 C   0  0  0  0  0  0  0  0  0  0  0  0
   31.0983   35.7834   60.0737 C   0  0  0  0  0  0  0  0  0  0  0  0
   31.8083   36.1278   58.9418 C   0  0  0  0  0  0  0  0  0  0  0  0
   32.2276   37.4436   58.7584 C   0  0  0  0  0  0  0  0  0  0  0  0
   32.9917   37.8187   57.5421 C   0  0  0  0  0  0  0  0  0  0  0  0
   33.4576   39.0372   57.2333 N   0  0  0  0  0  0  0  0  0  0  0  0
   34.0674   38.9383   56.1011 N   0  0  0  0  0  0  0  0  0  0  0  0
   33.9932   37.7202   55.6914 N   0  0  0  0  0  0  0  0  0  0  0  0
   34.5623   37.2103   54.4414 C   0  0  0  0  0  0  0  0  0  0  0  0
   34.2657   35.7380   54.3182 C   0  0  0  0  0  0  0  0  0  0  0  0
   34.4492   34.9026   55.4040 C   0  0  0  0  0  0  0  0  0  0  0  0
   34.1771   33.5521   55.2912 C   0  0  0  0  0  0  0  0  0  0  0  0
   33.7209   33.0361   54.0929 C   0  0  0  0  0  0  0  0  0  0  0  0
   33.5359   33.8705   53.0064 C   0  0  0  0  0  0  0  0  0  0  0  0
   33.8141   35.2215   53.1170 C   0  0  0  0  0  0  0  0  0  0  0  0
   33.5902   36.2688   51.7507 Cl  0  0  0  0  0  0  0  0  0  0  0  0
   33.3444   37.0184   56.5559 N   0  0  0  0  0  0  0  0  0  0  0  0
   31.9327   38.4053   59.7222 C   0  0  0  0  0  0  0  0  0  0  0  0
   31.2177   38.0536   60.8488 C   0  0  0  0  0  0  0  0  0  0  0  0
   30.7729   34.7636   60.2166 H   0  0  0  0  0  0  0  0  0  0  0  0
   32.0383   35.3783   58.1988 H   0  0  0  0  0  0  0  0  0  0  0  0
   35.6414   37.3646   54.4441 H   0  0  0  0  0  0  0  0  0  0  0  0
   34.1214   37.7418   53.5981 H   0  0  0  0  0  0  0  0  0  0  0  0
   34.8056   35.3050   56.3407 H   0  0  0  0  0  0  0  0  0  0  0  0
   34.3209   32.8997   56.1398 H   0  0  0  0  0  0  0  0  0  0  0  0
   33.5072   31.9811   54.0051 H   0  0  0  0  0  0  0  0  0  0  0  0
   33.1791   33.4674   52.0701 H   0  0  0  0  0  0  0  0  0  0  0  0
   32.2598   39.4255   59.5860 H   0  0  0  0  0  0  0  0  0  0  0  0
   30.9855   38.7993   61.5946 H   0  0  0  0  0  0  0  0  0  0  0  0
  1  2  1  0  0  0  0
  2 20  2  0  0  0  0
  2  3  1  0  0  0  0
  3  4  2  0  0  0  0
  3 21  1  0  0  0  0
  4  5  1  0  0  0  0
  4 22  1  0  0  0  0
  5  6  1  0  0  0  0
  5 19  2  0  0  0  0
  6 18  2  0  0  0  0
  6  7  1  0  0  0  0
  7  8  2  0  0  0  0
  8  9  1  0  0  0  0
  9 10  1  0  0  0  0
  9 18  1  0  0  0  0
 10 11  1  0  0  0  0
 10 23  1  0  0  0  0
 10 24  1  0  0  0  0
 11 16  2  0  0  0  0
 11 12  1  0  0  0  0
 12 13  2  0  0  0  0
 12 25  1  0  0  0  0
 13 14  1  0  0  0  0
 13 26  1  0  0  0  0
 14 15  2  0  0  0  0
 14 27  1  0  0  0  0
 15 16  1  0  0  0  0
 15 28  1  0  0  0  0
 16 17  1  0  0  0  0
 19 20  1  0  0  0  0
 19 29  1  0  0  0  0
 20 30  1  0  0  0  0
M  END
$$$$
