ZINC000000040822      none
 OpenBabel11202420153D

 37 38  0  0  1  0  0  0  0  0999 V2000
   32.0712   32.9012   61.2891 C   0  0  0  0  0  0  0  0  0  0  0  0
   32.5011   34.0377   60.5369 O   0  0  0  0  0  0  0  0  0  0  0  0
   31.5707   34.6622   59.7846 C   0  0  0  0  0  0  0  0  0  0  0  0
   30.4251   34.2515   59.7687 O   0  0  0  0  0  0  0  0  0  0  0  0
   31.9263   35.7918   59.0160 C   0  0  0  0  0  0  0  0  0  0  0  0
   32.8476   35.8447   58.0317 C   0  0  0  0  0  0  0  0  0  0  0  0
   32.9378   37.0903   57.5009 N   0  0  0  0  0  0  0  0  0  0  0  0
   32.0746   37.9595   58.1012 N   0  0  0  0  0  0  0  0  0  0  0  0
   31.3500   37.1880   59.1309 C   0  0  2  0  0  0  0  0  0  0  0  0
   30.2808   37.1786   58.9196 H   0  0  0  0  0  0  0  0  0  0  0  0
   31.6142   37.7574   60.5010 C   0  0  0  0  0  0  0  0  0  0  0  0
   32.6504   38.3471   60.7232 O   0  0  0  0  0  0  0  0  0  0  0  0
   30.6988   37.6114   61.4793 N   0  0  0  0  0  0  0  0  0  0  0  0
   30.9557   38.1649   62.8113 C   0  0  0  0  0  0  0  0  0  0  0  0
   31.6657   37.1172   63.6708 C   0  0  0  0  0  0  0  0  0  0  0  0
   31.9339   37.6952   65.0618 C   0  0  0  0  0  0  0  0  0  0  0  0
   30.6067   38.0794   65.7190 C   0  0  0  0  0  0  0  0  0  0  0  0
   29.8965   39.1272   64.8594 C   0  0  0  0  0  0  0  0  0  0  0  0
   29.6284   38.5491   63.4685 C   0  0  0  0  0  0  0  0  0  0  0  0
   32.9145   32.4950   61.8475 H   0  0  0  0  0  0  0  0  0  0  0  0
   31.2863   33.2009   61.9834 H   0  0  0  0  0  0  0  0  0  0  0  0
   31.6849   32.1410   60.6101 H   0  0  0  0  0  0  0  0  0  0  0  0
   33.4394   35.0017   57.7073 H   0  0  0  0  0  0  0  0  0  0  0  0
   33.5423   37.3330   56.7822 H   0  0  0  0  0  0  0  0  0  0  0  0
   32.5709   38.7353   58.5133 H   0  0  0  0  0  0  0  0  0  0  0  0
   29.8701   37.1397   61.3016 H   0  0  0  0  0  0  0  0  0  0  0  0
   31.5862   39.0495   62.7218 H   0  0  0  0  0  0  0  0  0  0  0  0
   31.0351   36.2327   63.7603 H   0  0  0  0  0  0  0  0  0  0  0  0
   32.6113   36.8434   63.2026 H   0  0  0  0  0  0  0  0  0  0  0  0
   32.5645   38.5797   64.9722 H   0  0  0  0  0  0  0  0  0  0  0  0
   32.4399   36.9487   65.6741 H   0  0  0  0  0  0  0  0  0  0  0  0
   30.7977   38.4913   66.7099 H   0  0  0  0  0  0  0  0  0  0  0  0
   29.9761   37.1949   65.8084 H   0  0  0  0  0  0  0  0  0  0  0  0
   30.5271   40.0118   64.7698 H   0  0  0  0  0  0  0  0  0  0  0  0
   28.9510   39.4010   65.3276 H   0  0  0  0  0  0  0  0  0  0  0  0
   29.1224   39.2956   62.8560 H   0  0  0  0  0  0  0  0  0  0  0  0
   28.9978   37.6645   63.5580 H   0  0  0  0  0  0  0  0  0  0  0  0
  1  2  1  0  0  0  0
  1 20  1  0  0  0  0
  1 21  1  0  0  0  0
  1 22  1  0  0  0  0
  2  3  1  0  0  0  0
  3  4  2  0  0  0  0
  3  5  1  0  0  0  0
  5  9  1  0  0  0  0
  5  6  2  0  0  0  0
  6  7  1  0  0  0  0
  6 23  1  0  0  0  0
  7  8  1  0  0  0  0
  7 24  1  0  0  0  0
  8  9  1  0  0  0  0
  8 25  1  0  0  0  0
  9 10  1  6  0  0  0
  9 11  1  0  0  0  0
 11 12  2  0  0  0  0
 11 13  1  0  0  0  0
 13 14  1  0  0  0  0
 13 26  1  0  0  0  0
 14 19  1  0  0  0  0
 14 15  1  0  0  0  0
 14 27  1  0  0  0  0
 15 16  1  0  0  0  0
 15 28  1  0  0  0  0
 15 29  1  0  0  0  0
 16 17  1  0  0  0  0
 16 30  1  0  0  0  0
 16 31  1  0  0  0  0
 17 18  1  0  0  0  0
 17 32  1  0  0  0  0
 17 33  1  0  0  0  0
 18 19  1  0  0  0  0
 18 34  1  0  0  0  0
 18 35  1  0  0  0  0
 19 36  1  0  0  0  0
 19 37  1  0  0  0  0
M  END
$$$$
