ZINC000000038997      none
 OpenBabel11202420153D

 40 42  0  0  0  0  0  0  0  0999 V2000
   33.0496   34.9669   58.2516 O   0  0  0  0  0  0  0  0  0  0  0  0
   32.8770   35.8589   57.4436 C   0  0  0  0  0  0  0  0  0  0  0  0
   32.6722   35.5614   56.1451 N   0  0  0  0  0  0  0  0  0  0  0  0
   32.6573   34.1634   55.7074 C   0  0  0  0  0  0  0  0  0  0  0  0
   34.0238   33.5062   55.9921 C   0  0  0  0  0  0  0  0  0  0  0  0
   34.2529   32.5677   54.7804 C   0  0  0  0  0  0  0  0  0  0  0  0
   33.6848   33.3906   53.5975 C   0  0  0  0  0  0  0  0  0  0  0  0
   32.4416   34.0897   54.1856 C   0  0  0  0  0  0  0  0  0  0  0  0
   32.8919   37.2667   57.8844 C   0  0  0  0  0  0  0  0  0  0  0  0
   33.3167   38.2717   57.0119 C   0  0  0  0  0  0  0  0  0  0  0  0
   33.3283   39.5846   57.4296 C   0  0  0  0  0  0  0  0  0  0  0  0
   32.9206   39.9139   58.7122 C   0  0  0  0  0  0  0  0  0  0  0  0
   32.4988   38.9309   59.5848 C   0  0  0  0  0  0  0  0  0  0  0  0
   32.4802   37.6038   59.1811 C   0  0  0  0  0  0  0  0  0  0  0  0
   32.0661   36.6368   60.0374 O   0  0  0  0  0  0  0  0  0  0  0  0
   31.6766   37.0126   61.2838 C   0  0  0  0  0  0  0  0  0  0  0  0
   32.6030   37.0644   62.3154 C   0  0  0  0  0  0  0  0  0  0  0  0
   32.2055   37.4519   63.5804 C   0  0  0  0  0  0  0  0  0  0  0  0
   30.8836   37.7772   63.8216 C   0  0  0  0  0  0  0  0  0  0  0  0
   29.9571   37.7208   62.7966 C   0  0  0  0  0  0  0  0  0  0  0  0
   30.3504   37.3396   61.5285 C   0  0  0  0  0  0  0  0  0  0  0  0
   32.5345   36.2730   55.5005 H   0  0  0  0  0  0  0  0  0  0  0  0
   31.8665   33.6192   56.2235 H   0  0  0  0  0  0  0  0  0  0  0  0
   34.8076   34.2619   56.0426 H   0  0  0  0  0  0  0  0  0  0  0  0
   33.9855   32.9324   56.9180 H   0  0  0  0  0  0  0  0  0  0  0  0
   33.7000   31.6364   54.9039 H   0  0  0  0  0  0  0  0  0  0  0  0
   35.3150   32.3686   54.6375 H   0  0  0  0  0  0  0  0  0  0  0  0
   33.3997   32.7323   52.7768 H   0  0  0  0  0  0  0  0  0  0  0  0
   34.4125   34.1280   53.2588 H   0  0  0  0  0  0  0  0  0  0  0  0
   31.5463   33.5091   53.9632 H   0  0  0  0  0  0  0  0  0  0  0  0
   32.3479   35.0942   53.7728 H   0  0  0  0  0  0  0  0  0  0  0  0
   33.6350   38.0199   56.0110 H   0  0  0  0  0  0  0  0  0  0  0  0
   33.6523   40.3612   56.7526 H   0  0  0  0  0  0  0  0  0  0  0  0
   32.9325   40.9457   59.0311 H   0  0  0  0  0  0  0  0  0  0  0  0
   32.1825   39.1954   60.5830 H   0  0  0  0  0  0  0  0  0  0  0  0
   33.6351   36.8064   62.1284 H   0  0  0  0  0  0  0  0  0  0  0  0
   32.9273   37.4971   64.3826 H   0  0  0  0  0  0  0  0  0  0  0  0
   30.5739   38.0756   64.8123 H   0  0  0  0  0  0  0  0  0  0  0  0
   28.9250   37.9755   62.9876 H   0  0  0  0  0  0  0  0  0  0  0  0
   29.6264   37.2957   60.7284 H   0  0  0  0  0  0  0  0  0  0  0  0
  1  2  2  0  0  0  0
  2  3  1  0  0  0  0
  2  9  1  0  0  0  0
  3  4  1  0  0  0  0
  3 22  1  0  0  0  0
  4  8  1  0  0  0  0
  4  5  1  0  0  0  0
  4 23  1  0  0  0  0
  5  6  1  0  0  0  0
  5 24  1  0  0  0  0
  5 25  1  0  0  0  0
  6  7  1  0  0  0  0
  6 26  1  0  0  0  0
  6 27  1  0  0  0  0
  7  8  1  0  0  0  0
  7 28  1  0  0  0  0
  7 29  1  0  0  0  0
  8 30  1  0  0  0  0
  8 31  1  0  0  0  0
  9 14  2  0  0  0  0
  9 10  1  0  0  0  0
 10 11  2  0  0  0  0
 10 32  1  0  0  0  0
 11 12  1  0  0  0  0
 11 33  1  0  0  0  0
 12 13  2  0  0  0  0
 12 34  1  0  0  0  0
 13 14  1  0  0  0  0
 13 35  1  0  0  0  0
 14 15  1  0  0  0  0
 15 16  1  0  0  0  0
 16 21  2  0  0  0  0
 16 17  1  0  0  0  0
 17 18  2  0  0  0  0
 17 36  1  0  0  0  0
 18 19  1  0  0  0  0
 18 37  1  0  0  0  0
 19 20  2  0  0  0  0
 19 38  1  0  0  0  0
 20 21  1  0  0  0  0
 20 39  1  0  0  0  0
 21 40  1  0  0  0  0
M  END
$$$$
