ZINC000000026816      none
 OpenBabel11202420153D

 33 36  0  0  0  0  0  0  0  0999 V2000
   29.7601   36.5663   60.8120 O   0  0  0  0  0  0  0  0  0  0  0  0
   30.7254   36.0381   60.2945 C   0  0  0  0  0  0  0  0  0  0  0  0
   30.8698   34.7091   60.4594 N   0  0  0  0  0  0  0  0  0  0  0  0
   32.0108   33.9886   59.9445 C   0  0  0  0  0  0  0  0  0  0  0  0
   32.0672   33.9479   58.4374 C   0  0  0  0  0  0  0  0  0  0  0  0
   32.5346   35.1858   57.8604 N   0  0  0  0  0  0  0  0  0  0  0  0
   33.2448   35.3661   56.7055 C   0  0  0  0  0  0  0  0  0  0  0  0
   33.5791   34.3000   55.7363 C   0  0  0  0  0  0  0  0  0  0  0  0
   33.1315   34.3866   54.4175 C   0  0  0  0  0  0  0  0  0  0  0  0
   33.4512   33.3914   53.5169 C   0  0  0  0  0  0  0  0  0  0  0  0
   34.2051   32.3041   53.9218 C   0  0  0  0  0  0  0  0  0  0  0  0
   34.6470   32.2096   55.2293 C   0  0  0  0  0  0  0  0  0  0  0  0
   34.3386   33.2006   56.1383 C   0  0  0  0  0  0  0  0  0  0  0  0
   33.5835   36.6264   56.5872 N   0  0  0  0  0  0  0  0  0  0  0  0
   33.1099   37.3233   57.6495 C   0  0  0  0  0  0  0  0  0  0  0  0
   33.2447   38.6532   58.0612 C   0  0  0  0  0  0  0  0  0  0  0  0
   32.6215   39.0812   59.2137 C   0  0  0  0  0  0  0  0  0  0  0  0
   31.8271   38.2237   59.9502 C   0  0  0  0  0  0  0  0  0  0  0  0
   31.6458   36.8975   59.5442 C   0  0  0  0  0  0  0  0  0  0  0  0
   32.3388   36.4361   58.4184 C   0  0  0  0  0  0  0  0  0  0  0  0
   30.1828   34.2187   60.9373 H   0  0  0  0  0  0  0  0  0  0  0  0
   31.9770   32.9662   60.3208 H   0  0  0  0  0  0  0  0  0  0  0  0
   32.9172   34.4670   60.3155 H   0  0  0  0  0  0  0  0  0  0  0  0
   31.0691   33.7361   58.0539 H   0  0  0  0  0  0  0  0  0  0  0  0
   32.7375   33.1436   58.1340 H   0  0  0  0  0  0  0  0  0  0  0  0
   32.5391   35.2326   54.1014 H   0  0  0  0  0  0  0  0  0  0  0  0
   33.1092   33.4594   52.4948 H   0  0  0  0  0  0  0  0  0  0  0  0
   34.4494   31.5257   53.2141 H   0  0  0  0  0  0  0  0  0  0  0  0
   35.2352   31.3584   55.5391 H   0  0  0  0  0  0  0  0  0  0  0  0
   34.6846   33.1258   57.1586 H   0  0  0  0  0  0  0  0  0  0  0  0
   33.8355   39.3433   57.4771 H   0  0  0  0  0  0  0  0  0  0  0  0
   32.7556   40.1003   59.5451 H   0  0  0  0  0  0  0  0  0  0  0  0
   31.3418   38.5805   60.8466 H   0  0  0  0  0  0  0  0  0  0  0  0
  1  2  2  0  0  0  0
  2 19  1  0  0  0  0
  2  3  1  0  0  0  0
  3  4  1  0  0  0  0
  3 21  1  0  0  0  0
  4  5  1  0  0  0  0
  4 22  1  0  0  0  0
  4 23  1  0  0  0  0
  5  6  1  0  0  0  0
  5 24  1  0  0  0  0
  5 25  1  0  0  0  0
  6 20  1  0  0  0  0
  6  7  1  0  0  0  0
  7  8  1  0  0  0  0
  7 14  2  0  0  0  0
  8 13  2  0  0  0  0
  8  9  1  0  0  0  0
  9 10  2  0  0  0  0
  9 26  1  0  0  0  0
 10 11  1  0  0  0  0
 10 27  1  0  0  0  0
 11 12  2  0  0  0  0
 11 28  1  0  0  0  0
 12 13  1  0  0  0  0
 12 29  1  0  0  0  0
 13 30  1  0  0  0  0
 14 15  1  0  0  0  0
 15 20  2  0  0  0  0
 15 16  1  0  0  0  0
 16 17  2  0  0  0  0
 16 31  1  0  0  0  0
 17 18  1  0  0  0  0
 17 32  1  0  0  0  0
 18 19  2  0  0  0  0
 18 33  1  0  0  0  0
 19 20  1  0  0  0  0
M  END
$$$$
