ZINC000000054670      none
 OpenBabel11202420153D

 30 32  0  0  0  0  0  0  0  0999 V2000
   32.8342   33.4754   62.0119 N   0  0  0  0  0  0  0  0  0  0  0  0
   32.4259   34.4744   62.3666 C   0  0  0  0  0  0  0  0  0  0  0  0
   31.9110   35.7336   62.8138 C   0  0  0  0  0  0  0  0  0  0  0  0
   31.3955   35.8642   64.1048 C   0  0  0  0  0  0  0  0  0  0  0  0
   30.9009   37.0786   64.5297 C   0  0  0  0  0  0  0  0  0  0  0  0
   30.9149   38.1787   63.6855 C   0  0  0  0  0  0  0  0  0  0  0  0
   31.4141   38.0717   62.4053 C   0  0  0  0  0  0  0  0  0  0  0  0
   31.9206   36.8511   61.9532 C   0  0  0  0  0  0  0  0  0  0  0  0
   32.4208   36.7407   60.6895 N   0  0  0  0  0  0  0  0  0  0  0  0
   31.8874   35.8942   59.8463 C   0  0  0  0  0  0  0  0  0  0  0  0
   32.3477   35.8565   58.4573 C   0  0  0  0  0  0  0  0  0  0  0  0
   32.3695   34.7678   57.6320 C   0  0  0  0  0  0  0  0  0  0  0  0
   32.8600   35.1238   56.4186 N   0  0  0  0  0  0  0  0  0  0  0  0
   32.9688   34.5203   55.6671 H   0  0  0  0  0  0  0  0  0  0  0  0
   33.1883   36.4639   56.4060 C   0  0  0  0  0  0  0  0  0  0  0  0
   33.7204   37.3038   55.4328 C   0  0  0  0  0  0  0  0  0  0  0  0
   33.9447   38.6325   55.7194 C   0  0  0  0  0  0  0  0  0  0  0  0
   33.6452   39.1456   56.9733 C   0  0  0  0  0  0  0  0  0  0  0  0
   33.1172   38.3299   57.9500 C   0  0  0  0  0  0  0  0  0  0  0  0
   32.8854   36.9849   57.6739 C   0  0  0  0  0  0  0  0  0  0  0  0
   31.3840   35.0137   64.7703 H   0  0  0  0  0  0  0  0  0  0  0  0
   30.5028   37.1751   65.5290 H   0  0  0  0  0  0  0  0  0  0  0  0
   30.5281   39.1255   64.0325 H   0  0  0  0  0  0  0  0  0  0  0  0
   31.4178   38.9326   61.7533 H   0  0  0  0  0  0  0  0  0  0  0  0
   31.1076   35.2233   60.1753 H   0  0  0  0  0  0  0  0  0  0  0  0
   32.0431   33.7749   57.9038 H   0  0  0  0  0  0  0  0  0  0  0  0
   33.9578   36.9145   54.4538 H   0  0  0  0  0  0  0  0  0  0  0  0
   34.3580   39.2809   54.9610 H   0  0  0  0  0  0  0  0  0  0  0  0
   33.8264   40.1892   57.1845 H   0  0  0  0  0  0  0  0  0  0  0  0
   32.8841   38.7318   58.9250 H   0  0  0  0  0  0  0  0  0  0  0  0
  1  2  3  0  0  0  0
  2  3  1  0  0  0  0
  3  8  2  0  0  0  0
  3  4  1  0  0  0  0
  4  5  2  0  0  0  0
  4 21  1  0  0  0  0
  5  6  1  0  0  0  0
  5 22  1  0  0  0  0
  6  7  2  0  0  0  0
  6 23  1  0  0  0  0
  7  8  1  0  0  0  0
  7 24  1  0  0  0  0
  8  9  1  0  0  0  0
  9 10  2  0  0  0  0
 10 11  1  0  0  0  0
 10 25  1  0  0  0  0
 11 20  1  0  0  0  0
 11 12  2  0  0  0  0
 12 13  1  0  0  0  0
 12 26  1  0  0  0  0
 13 14  1  0  0  0  0
 13 15  1  0  0  0  0
 15 20  2  0  0  0  0
 15 16  1  0  0  0  0
 16 17  2  0  0  0  0
 16 27  1  0  0  0  0
 17 18  1  0  0  0  0
 17 28  1  0  0  0  0
 18 19  2  0  0  0  0
 18 29  1  0  0  0  0
 19 20  1  0  0  0  0
 19 30  1  0  0  0  0
M  END
$$$$
