ZINC000000025972      none
 OpenBabel11202420153D

 19 20  0  0  0  0  0  0  0  0999 V2000
   31.6022   38.4261   62.4065 O   0  0  0  0  0  0  0  0  0  0  0  0
   31.9398   38.1004   61.2805 C   0  0  0  0  0  0  0  0  0  0  0  0
   32.3332   39.0341   60.3966 N   0  0  0  0  0  0  0  0  0  0  0  0
   32.3526   39.9709   60.6474 H   0  0  0  0  0  0  0  0  0  0  0  0
   32.6949   38.6518   59.1557 C   0  0  0  0  0  0  0  0  0  0  0  0
   32.6645   37.4022   58.8045 N   0  0  0  0  0  0  0  0  0  0  0  0
   32.2744   36.4101   59.6377 C   0  0  0  0  0  0  0  0  0  0  0  0
   31.9251   36.7305   60.8986 C   0  0  0  0  0  0  0  0  0  0  0  0
   31.5124   35.7639   61.9782 C   0  0  0  0  0  0  0  0  0  0  0  0
   30.9889   34.1885   61.2471 S   0  0  0  0  0  0  0  0  0  0  0  0
   32.3218   33.9136   60.0373 C   0  0  0  0  0  0  0  0  0  0  0  0
   32.2633   35.0423   59.0180 C   0  0  0  0  0  0  0  0  0  0  0  0
   33.0194   39.3962   58.4437 H   0  0  0  0  0  0  0  0  0  0  0  0
   30.6860   36.1897   62.5471 H   0  0  0  0  0  0  0  0  0  0  0  0
   32.3570   35.5893   62.6447 H   0  0  0  0  0  0  0  0  0  0  0  0
   32.1750   32.9563   59.5373 H   0  0  0  0  0  0  0  0  0  0  0  0
   33.2877   33.9218   60.5425 H   0  0  0  0  0  0  0  0  0  0  0  0
   31.3529   34.9335   58.4286 H   0  0  0  0  0  0  0  0  0  0  0  0
   33.1205   34.9546   58.3505 H   0  0  0  0  0  0  0  0  0  0  0  0
  1  2  2  0  0  0  0
  2  8  1  0  0  0  0
  2  3  1  0  0  0  0
  3  4  1  0  0  0  0
  3  5  1  0  0  0  0
  5  6  2  0  0  0  0
  5 13  1  0  0  0  0
  6  7  1  0  0  0  0
  7 12  1  0  0  0  0
  7  8  2  0  0  0  0
  8  9  1  0  0  0  0
  9 10  1  0  0  0  0
  9 14  1  0  0  0  0
  9 15  1  0  0  0  0
 10 11  1  0  0  0  0
 11 12  1  0  0  0  0
 11 16  1  0  0  0  0
 11 17  1  0  0  0  0
 12 18  1  0  0  0  0
 12 19  1  0  0  0  0
M  END
$$$$
