ZINC000000053404      none
 OpenBabel11202420153D

 38 40  0  0  0  0  0  0  0  0999 V2000
   33.0740   39.5114   59.1690 C   0  0  0  0  0  0  0  0  0  0  0  0
   32.8877   38.1119   58.6420 C   0  0  0  0  0  0  0  0  0  0  0  0
   32.3859   37.1902   59.4089 N   0  0  0  0  0  0  0  0  0  0  0  0
   32.1890   35.8775   58.9796 N   0  0  0  0  0  0  0  0  0  0  0  0
   31.6173   34.9011   59.9103 C   0  0  0  0  0  0  0  0  0  0  0  0
   31.3419   35.5694   61.2327 C   0  0  0  0  0  0  0  0  0  0  0  0
   30.2115   35.6031   61.6714 O   0  0  0  0  0  0  0  0  0  0  0  0
   32.3506   36.1343   61.9253 N   0  0  0  0  0  0  0  0  0  0  0  0
   32.0935   36.7604   63.1521 C   0  0  0  0  0  0  0  0  0  0  0  0
   33.0697   36.7807   64.1394 C   0  0  0  0  0  0  0  0  0  0  0  0
   32.8172   37.4018   65.3465 C   0  0  0  0  0  0  0  0  0  0  0  0
   31.5852   37.9965   65.5768 C   0  0  0  0  0  0  0  0  0  0  0  0
   31.3353   38.6028   66.7679 O   0  0  0  0  0  0  0  0  0  0  0  0
   30.6079   37.9723   64.5926 C   0  0  0  0  0  0  0  0  0  0  0  0
   30.8607   37.3557   63.3831 C   0  0  0  0  0  0  0  0  0  0  0  0
   32.5161   35.4819   57.7316 C   0  0  0  0  0  0  0  0  0  0  0  0
   32.3400   34.3291   57.3799 O   0  0  0  0  0  0  0  0  0  0  0  0
   33.0838   36.4685   56.8045 C   0  0  0  0  0  0  0  0  0  0  0  0
   33.4418   36.1354   55.4988 C   0  0  0  0  0  0  0  0  0  0  0  0
   33.9755   37.1030   54.6762 C   0  0  0  0  0  0  0  0  0  0  0  0
   34.1588   38.4013   55.1347 C   0  0  0  0  0  0  0  0  0  0  0  0
   33.8149   38.7504   56.4108 C   0  0  0  0  0  0  0  0  0  0  0  0
   33.2719   37.7908   57.2673 C   0  0  0  0  0  0  0  0  0  0  0  0
   32.7342   39.5583   60.2037 H   0  0  0  0  0  0  0  0  0  0  0  0
   34.1291   39.7804   59.1205 H   0  0  0  0  0  0  0  0  0  0  0  0
   32.4933   40.2078   58.5640 H   0  0  0  0  0  0  0  0  0  0  0  0
   32.3221   34.0827   60.0566 H   0  0  0  0  0  0  0  0  0  0  0  0
   30.6863   34.5100   59.5000 H   0  0  0  0  0  0  0  0  0  0  0  0
   33.2545   36.1074   61.5745 H   0  0  0  0  0  0  0  0  0  0  0  0
   34.0274   36.3144   63.9617 H   0  0  0  0  0  0  0  0  0  0  0  0
   33.5776   37.4207   66.1134 H   0  0  0  0  0  0  0  0  0  0  0  0
   32.0750   38.5683   67.3897 H   0  0  0  0  0  0  0  0  0  0  0  0
   29.6490   38.4353   64.7725 H   0  0  0  0  0  0  0  0  0  0  0  0
   30.0995   37.3364   62.6173 H   0  0  0  0  0  0  0  0  0  0  0  0
   33.3024   35.1278   55.1357 H   0  0  0  0  0  0  0  0  0  0  0  0
   34.2546   36.8495   53.6642 H   0  0  0  0  0  0  0  0  0  0  0  0
   34.5784   39.1452   54.4738 H   0  0  0  0  0  0  0  0  0  0  0  0
   33.9631   39.7634   56.7549 H   0  0  0  0  0  0  0  0  0  0  0  0
  1  2  1  0  0  0  0
  1 24  1  0  0  0  0
  1 25  1  0  0  0  0
  1 26  1  0  0  0  0
  2 23  1  0  0  0  0
  2  3  2  0  0  0  0
  3  4  1  0  0  0  0
  4  5  1  0  0  0  0
  4 16  1  0  0  0  0
  5  6  1  0  0  0  0
  5 27  1  0  0  0  0
  5 28  1  0  0  0  0
  6  7  2  0  0  0  0
  6  8  1  0  0  0  0
  8  9  1  0  0  0  0
  8 29  1  0  0  0  0
  9 15  2  0  0  0  0
  9 10  1  0  0  0  0
 10 11  2  0  0  0  0
 10 30  1  0  0  0  0
 11 12  1  0  0  0  0
 11 31  1  0  0  0  0
 12 13  1  0  0  0  0
 12 14  2  0  0  0  0
 13 32  1  0  0  0  0
 14 15  1  0  0  0  0
 14 33  1  0  0  0  0
 15 34  1  0  0  0  0
 16 17  2  0  0  0  0
 16 18  1  0  0  0  0
 18 23  2  0  0  0  0
 18 19  1  0  0  0  0
 19 20  2  0  0  0  0
 19 35  1  0  0  0  0
 20 21  1  0  0  0  0
 20 36  1  0  0  0  0
 21 22  2  0  0  0  0
 21 37  1  0  0  0  0
 22 23  1  0  0  0  0
 22 38  1  0  0  0  0
M  END
$$$$
