ZINC000000034378      none
 OpenBabel11202420153D

 41 43  0  0  1  0  0  0  0  0999 V2000
   27.0723   32.7868   64.4328 C   0  0  0  0  0  0  0  0  0  0  0  0
   27.4769   33.3189   65.8090 C   0  0  0  0  0  0  0  0  0  0  0  0
   28.0418   34.6489   65.6666 O   0  0  0  0  0  0  0  0  0  0  0  0
   29.3672   34.7304   65.4713 C   0  0  0  0  0  0  0  0  0  0  0  0
   30.0334   33.7237   65.4208 O   0  0  0  0  0  0  0  0  0  0  0  0
   30.0245   36.0775   65.3150 C   0  0  1  0  0  0  0  0  0  0  0  0
   30.0569   36.4428   63.8534 C   0  0  0  0  0  0  0  0  0  0  0  0
   30.1343   35.4502   62.8945 C   0  0  0  0  0  0  0  0  0  0  0  0
   30.1595   35.7850   61.5535 C   0  0  0  0  0  0  0  0  0  0  0  0
   30.1174   37.1130   61.1719 C   0  0  0  0  0  0  0  0  0  0  0  0
   30.0451   38.1058   62.1310 C   0  0  0  0  0  0  0  0  0  0  0  0
   30.0153   37.7707   63.4718 C   0  0  0  0  0  0  0  0  0  0  0  0
   29.2424   37.0754   66.0390 N   0  0  0  0  0  0  0  0  0  0  0  0
   29.7874   38.2127   66.5236 C   0  0  0  0  0  0  0  0  0  0  0  0
   29.0945   39.1129   66.9615 O   0  0  0  0  0  0  0  0  0  0  0  0
   31.2608   38.3157   66.4990 C   0  0  0  0  0  0  0  0  0  0  0  0
   32.0208   37.2044   66.1485 C   0  0  0  0  0  0  0  0  0  0  0  0
   33.6761   37.5666   66.1987 S   0  0  0  0  0  0  0  0  0  0  0  0
   33.3808   39.2228   66.7001 C   0  0  0  0  0  0  0  0  0  0  0  0
   34.4601   40.2401   66.9671 C   0  0  0  0  0  0  0  0  0  0  0  0
   32.0812   39.4587   66.8126 C   0  0  0  0  0  0  0  0  0  0  0  0
   31.5164   40.7910   67.2337 C   0  0  0  0  0  0  0  0  0  0  0  0
   31.4024   36.0013   65.8219 N   0  0  0  0  0  0  0  0  0  0  0  0
   26.3301   33.4512   63.9902 H   0  0  0  0  0  0  0  0  0  0  0  0
   27.9500   32.7417   63.7882 H   0  0  0  0  0  0  0  0  0  0  0  0
   26.6482   31.7883   64.5397 H   0  0  0  0  0  0  0  0  0  0  0  0
   28.2190   32.6545   66.2517 H   0  0  0  0  0  0  0  0  0  0  0  0
   26.5992   33.3641   66.4536 H   0  0  0  0  0  0  0  0  0  0  0  0
   30.1713   34.4128   63.1928 H   0  0  0  0  0  0  0  0  0  0  0  0
   30.2158   35.0093   60.8041 H   0  0  0  0  0  0  0  0  0  0  0  0
   30.1406   37.3748   60.1243 H   0  0  0  0  0  0  0  0  0  0  0  0
   30.0120   39.1434   61.8328 H   0  0  0  0  0  0  0  0  0  0  0  0
   29.9590   38.5465   64.2211 H   0  0  0  0  0  0  0  0  0  0  0  0
   28.2959   36.9155   66.1777 H   0  0  0  0  0  0  0  0  0  0  0  0
   34.7523   40.1930   68.0160 H   0  0  0  0  0  0  0  0  0  0  0  0
   35.3248   40.0258   66.3389 H   0  0  0  0  0  0  0  0  0  0  0  0
   34.0837   41.2374   66.7393 H   0  0  0  0  0  0  0  0  0  0  0  0
   31.3488   41.4096   66.3520 H   0  0  0  0  0  0  0  0  0  0  0  0
   30.5713   40.6367   67.7544 H   0  0  0  0  0  0  0  0  0  0  0  0
   32.2207   41.2902   67.8992 H   0  0  0  0  0  0  0  0  0  0  0  0
   31.8595   35.1518   65.9237 H   0  0  0  0  0  0  0  0  0  0  0  0
  1  2  1  0  0  0  0
  1 24  1  0  0  0  0
  1 25  1  0  0  0  0
  1 26  1  0  0  0  0
  2  3  1  0  0  0  0
  2 27  1  0  0  0  0
  2 28  1  0  0  0  0
  3  4  1  0  0  0  0
  4  5  2  0  0  0  0
  6  4  1  1  0  0  0
  6 23  1  0  0  0  0
  6  7  1  0  0  0  0
  6 13  1  0  0  0  0
  7 12  2  0  0  0  0
  7  8  1  0  0  0  0
  8  9  2  0  0  0  0
  8 29  1  0  0  0  0
  9 10  1  0  0  0  0
  9 30  1  0  0  0  0
 10 11  2  0  0  0  0
 10 31  1  0  0  0  0
 11 12  1  0  0  0  0
 11 32  1  0  0  0  0
 12 33  1  0  0  0  0
 13 14  1  0  0  0  0
 13 34  1  0  0  0  0
 14 15  2  0  0  0  0
 14 16  1  0  0  0  0
 16 21  1  0  0  0  0
 16 17  2  0  0  0  0
 17 18  1  0  0  0  0
 17 23  1  0  0  0  0
 18 19  1  0  0  0  0
 19 20  1  0  0  0  0
 19 21  2  0  0  0  0
 20 35  1  0  0  0  0
 20 36  1  0  0  0  0
 20 37  1  0  0  0  0
 21 22  1  0  0  0  0
 22 38  1  0  0  0  0
 22 39  1  0  0  0  0
 22 40  1  0  0  0  0
 23 41  1  0  0  0  0
M  END
$$$$
