ZINC000000008920      none
 OpenBabel11202420153D

 33 36  0  0  0  0  0  0  0  0999 V2000
   33.2369   40.8220   59.0537 N   0  0  0  0  0  0  0  0  0  0  0  0
   33.1878   39.6490   58.2976 C   0  0  0  0  0  0  0  0  0  0  0  0
   33.5593   39.6645   56.9652 C   0  0  0  0  0  0  0  0  0  0  0  0
   33.5125   38.5028   56.2095 C   0  0  0  0  0  0  0  0  0  0  0  0
   33.0961   37.3162   56.7745 C   0  0  0  0  0  0  0  0  0  0  0  0
   32.7193   37.2783   58.1110 C   0  0  0  0  0  0  0  0  0  0  0  0
   32.2682   36.2811   58.9526 N   0  0  0  0  0  0  0  0  0  0  0  0
   32.1285   35.3503   58.7179 H   0  0  0  0  0  0  0  0  0  0  0  0
   32.0559   36.8464   60.1728 C   0  0  0  0  0  0  0  0  0  0  0  0
   31.5594   36.1110   61.3909 C   0  0  0  0  0  0  0  0  0  0  0  0
   31.4511   37.0708   62.5476 C   0  0  0  0  0  0  0  0  0  0  0  0
   32.4016   37.3209   63.4002 N   0  0  0  0  0  0  0  0  0  0  0  0
   31.9708   38.2327   64.3095 C   0  0  0  0  0  0  0  0  0  0  0  0
   32.5653   38.8453   65.4159 C   0  0  0  0  0  0  0  0  0  0  0  0
   31.8541   39.7428   66.1607 C   0  0  0  0  0  0  0  0  0  0  0  0
   30.5429   40.0553   65.8305 C   0  0  0  0  0  0  0  0  0  0  0  0
   29.9359   39.4628   64.7440 C   0  0  0  0  0  0  0  0  0  0  0  0
   30.6432   38.5485   63.9751 C   0  0  0  0  0  0  0  0  0  0  0  0
   30.3431   37.7975   62.8562 N   0  0  0  0  0  0  0  0  0  0  0  0
   29.4988   37.7890   62.3788 H   0  0  0  0  0  0  0  0  0  0  0  0
   32.3452   38.1138   60.1335 N   0  0  0  0  0  0  0  0  0  0  0  0
   32.7627   38.4481   58.8853 C   0  0  0  0  0  0  0  0  0  0  0  0
   32.9767   40.8079   59.9880 H   0  0  0  0  0  0  0  0  0  0  0  0
   33.5312   41.6508   58.6446 H   0  0  0  0  0  0  0  0  0  0  0  0
   33.8873   40.5875   56.5105 H   0  0  0  0  0  0  0  0  0  0  0  0
   33.8049   38.5279   55.1700 H   0  0  0  0  0  0  0  0  0  0  0  0
   33.0631   36.4162   56.1782 H   0  0  0  0  0  0  0  0  0  0  0  0
   30.5796   35.6818   61.1819 H   0  0  0  0  0  0  0  0  0  0  0  0
   32.2586   35.3140   61.6442 H   0  0  0  0  0  0  0  0  0  0  0  0
   33.5853   38.6099   65.6814 H   0  0  0  0  0  0  0  0  0  0  0  0
   32.3171   40.2141   67.0152 H   0  0  0  0  0  0  0  0  0  0  0  0
   29.9942   40.7673   66.4293 H   0  0  0  0  0  0  0  0  0  0  0  0
   28.9151   39.7094   64.4914 H   0  0  0  0  0  0  0  0  0  0  0  0
  1  2  1  0  0  0  0
  1 23  1  0  0  0  0
  1 24  1  0  0  0  0
  2 22  2  0  0  0  0
  2  3  1  0  0  0  0
  3  4  2  0  0  0  0
  3 25  1  0  0  0  0
  4  5  1  0  0  0  0
  4 26  1  0  0  0  0
  5  6  2  0  0  0  0
  5 27  1  0  0  0  0
  6 22  1  0  0  0  0
  6  7  1  0  0  0  0
  7  8  1  0  0  0  0
  7  9  1  0  0  0  0
  9 10  1  0  0  0  0
  9 21  2  0  0  0  0
 10 11  1  0  0  0  0
 10 28  1  0  0  0  0
 10 29  1  0  0  0  0
 11 19  1  0  0  0  0
 11 12  2  0  0  0  0
 12 13  1  0  0  0  0
 13 18  2  0  0  0  0
 13 14  1  0  0  0  0
 14 15  2  0  0  0  0
 14 30  1  0  0  0  0
 15 16  1  0  0  0  0
 15 31  1  0  0  0  0
 16 17  2  0  0  0  0
 16 32  1  0  0  0  0
 17 18  1  0  0  0  0
 17 33  1  0  0  0  0
 18 19  1  0  0  0  0
 19 20  1  0  0  0  0
 21 22  1  0  0  0  0
M  END
$$$$
