ZINC000000035522      none
 OpenBabel11202420153D

 37 38  0  0  0  0  0  0  0  0999 V2000
   32.6568   34.1661   55.7531 C   0  0  0  0  0  0  0  0  0  0  0  0
   33.8550   34.8059   56.1971 O   0  0  0  0  0  0  0  0  0  0  0  0
   34.0505   36.0908   55.8024 C   0  0  0  0  0  0  0  0  0  0  0  0
   34.7204   36.3610   54.6205 C   0  0  0  0  0  0  0  0  0  0  0  0
   34.9185   37.6689   54.2196 C   0  0  0  0  0  0  0  0  0  0  0  0
   34.4504   38.7165   54.9939 C   0  0  0  0  0  0  0  0  0  0  0  0
   33.7813   38.4645   56.1734 C   0  0  0  0  0  0  0  0  0  0  0  0
   33.5752   37.1479   56.5888 C   0  0  0  0  0  0  0  0  0  0  0  0
   32.8602   36.8711   57.8509 C   0  0  0  0  0  0  0  0  0  0  0  0
   32.3622   37.7630   58.6727 N   0  0  0  0  0  0  0  0  0  0  0  0
   31.8091   37.1653   59.6686 N   0  0  0  0  0  0  0  0  0  0  0  0
   31.9320   35.8668   59.5222 C   0  0  0  0  0  0  0  0  0  0  0  0
   31.3356   34.6315   60.6281 S   0  0  0  0  0  0  0  0  0  0  0  0
   30.5791   35.6816   61.8935 C   0  0  0  0  0  0  0  0  0  0  0  0
   31.6016   36.0100   62.9507 C   0  0  0  0  0  0  0  0  0  0  0  0
   32.7718   36.0799   62.6584 O   0  0  0  0  0  0  0  0  0  0  0  0
   31.2123   36.2249   64.2172 O   0  0  0  0  0  0  0  0  0  0  0  0
   32.2513   36.5363   65.1825 C   0  0  0  0  0  0  0  0  0  0  0  0
   32.4609   38.0510   65.2354 C   0  0  0  0  0  0  0  0  0  0  0  0
   31.8317   36.0309   66.5643 C   0  0  0  0  0  0  0  0  0  0  0  0
   32.5937   35.6515   58.3687 O   0  0  0  0  0  0  0  0  0  0  0  0
   32.6394   34.1435   54.6634 H   0  0  0  0  0  0  0  0  0  0  0  0
   32.6253   33.1467   56.1381 H   0  0  0  0  0  0  0  0  0  0  0  0
   31.7922   34.7197   56.1190 H   0  0  0  0  0  0  0  0  0  0  0  0
   35.0888   35.5487   54.0116 H   0  0  0  0  0  0  0  0  0  0  0  0
   35.4454   37.8746   53.2995 H   0  0  0  0  0  0  0  0  0  0  0  0
   34.6099   39.7355   54.6732 H   0  0  0  0  0  0  0  0  0  0  0  0
   33.4178   39.2846   56.7749 H   0  0  0  0  0  0  0  0  0  0  0  0
   30.2219   36.6035   61.4347 H   0  0  0  0  0  0  0  0  0  0  0  0
   29.7412   35.1544   62.3499 H   0  0  0  0  0  0  0  0  0  0  0  0
   33.1809   36.0510   64.8850 H   0  0  0  0  0  0  0  0  0  0  0  0
   31.5314   38.5362   65.5330 H   0  0  0  0  0  0  0  0  0  0  0  0
   33.2409   38.2847   65.9600 H   0  0  0  0  0  0  0  0  0  0  0  0
   32.7597   38.4111   64.2509 H   0  0  0  0  0  0  0  0  0  0  0  0
   30.9022   36.5163   66.8619 H   0  0  0  0  0  0  0  0  0  0  0  0
   31.6824   34.9519   66.5267 H   0  0  0  0  0  0  0  0  0  0  0  0
   32.6118   36.2648   67.2888 H   0  0  0  0  0  0  0  0  0  0  0  0
  1  2  1  0  0  0  0
  1 22  1  0  0  0  0
  1 23  1  0  0  0  0
  1 24  1  0  0  0  0
  2  3  1  0  0  0  0
  3  8  2  0  0  0  0
  3  4  1  0  0  0  0
  4  5  2  0  0  0  0
  4 25  1  0  0  0  0
  5  6  1  0  0  0  0
  5 26  1  0  0  0  0
  6  7  2  0  0  0  0
  6 27  1  0  0  0  0
  7  8  1  0  0  0  0
  7 28  1  0  0  0  0
  8  9  1  0  0  0  0
  9 21  1  0  0  0  0
  9 10  2  0  0  0  0
 10 11  1  0  0  0  0
 11 12  2  0  0  0  0
 12 13  1  0  0  0  0
 12 21  1  0  0  0  0
 13 14  1  0  0  0  0
 14 15  1  0  0  0  0
 14 29  1  0  0  0  0
 14 30  1  0  0  0  0
 15 16  2  0  0  0  0
 15 17  1  0  0  0  0
 17 18  1  0  0  0  0
 18 19  1  0  0  0  0
 18 20  1  0  0  0  0
 18 31  1  0  0  0  0
 19 32  1  0  0  0  0
 19 33  1  0  0  0  0
 19 34  1  0  0  0  0
 20 35  1  0  0  0  0
 20 36  1  0  0  0  0
 20 37  1  0  0  0  0
M  END
$$$$
