ZINC000000030315      none
 OpenBabel11202420163D

 36 37  0  0  0  0  0  0  0  0999 V2000
   31.3063   34.1499   62.2571 C   0  0  0  0  0  0  0  0  0  0  0  0
   32.1168   35.2759   61.9144 O   0  0  0  0  0  0  0  0  0  0  0  0
   32.0969   36.3331   62.7682 C   0  0  0  0  0  0  0  0  0  0  0  0
   33.0022   36.3957   63.8179 C   0  0  0  0  0  0  0  0  0  0  0  0
   32.9802   37.4714   64.6840 C   0  0  0  0  0  0  0  0  0  0  0  0
   32.0573   38.4856   64.5054 C   0  0  0  0  0  0  0  0  0  0  0  0
   31.1545   38.4257   63.4602 C   0  0  0  0  0  0  0  0  0  0  0  0
   31.1683   37.3488   62.5948 C   0  0  0  0  0  0  0  0  0  0  0  0
   30.1798   37.2810   61.4592 C   0  0  0  0  0  0  0  0  0  0  0  0
   30.8929   36.8726   60.1960 C   0  0  0  0  0  0  0  0  0  0  0  0
   30.5658   35.8590   59.6157 O   0  0  0  0  0  0  0  0  0  0  0  0
   31.8940   37.6336   59.7111 N   0  0  0  0  0  0  0  0  0  0  0  0
   32.5560   37.2542   58.5382 C   0  0  0  0  0  0  0  0  0  0  0  0
   32.6678   35.9105   58.2059 C   0  0  0  0  0  0  0  0  0  0  0  0
   33.3225   35.5392   57.0467 C   0  0  0  0  0  0  0  0  0  0  0  0
   33.4636   33.8599   56.6301 Cl  0  0  0  0  0  0  0  0  0  0  0  0
   33.8660   36.5055   56.2178 C   0  0  0  0  0  0  0  0  0  0  0  0
   33.7556   37.8437   56.5468 C   0  0  0  0  0  0  0  0  0  0  0  0
   33.0975   38.2210   57.7012 C   0  0  0  0  0  0  0  0  0  0  0  0
   32.9727   39.6805   58.0554 C   0  0  0  0  0  0  0  0  0  0  0  0
   30.2625   34.4583   62.3171 H   0  0  0  0  0  0  0  0  0  0  0  0
   31.4141   33.3790   61.4941 H   0  0  0  0  0  0  0  0  0  0  0  0
   31.6241   33.7536   63.2215 H   0  0  0  0  0  0  0  0  0  0  0  0
   33.7232   35.6039   63.9577 H   0  0  0  0  0  0  0  0  0  0  0  0
   33.6847   37.5206   65.5011 H   0  0  0  0  0  0  0  0  0  0  0  0
   32.0418   39.3260   65.1835 H   0  0  0  0  0  0  0  0  0  0  0  0
   30.4348   39.2192   63.3226 H   0  0  0  0  0  0  0  0  0  0  0  0
   29.4072   36.5486   61.6933 H   0  0  0  0  0  0  0  0  0  0  0  0
   29.7215   38.2598   61.3176 H   0  0  0  0  0  0  0  0  0  0  0  0
   32.1554   38.4442   60.1752 H   0  0  0  0  0  0  0  0  0  0  0  0
   32.2441   35.1565   58.8528 H   0  0  0  0  0  0  0  0  0  0  0  0
   34.3768   36.2135   55.3122 H   0  0  0  0  0  0  0  0  0  0  0  0
   34.1804   38.5953   55.8979 H   0  0  0  0  0  0  0  0  0  0  0  0
   33.8295   39.9828   58.6575 H   0  0  0  0  0  0  0  0  0  0  0  0
   32.9425   40.2746   57.1421 H   0  0  0  0  0  0  0  0  0  0  0  0
   32.0557   39.8396   58.6228 H   0  0  0  0  0  0  0  0  0  0  0  0
  1  2  1  0  0  0  0
  1 21  1  0  0  0  0
  1 22  1  0  0  0  0
  1 23  1  0  0  0  0
  2  3  1  0  0  0  0
  3  8  2  0  0  0  0
  3  4  1  0  0  0  0
  4  5  2  0  0  0  0
  4 24  1  0  0  0  0
  5  6  1  0  0  0  0
  5 25  1  0  0  0  0
  6  7  2  0  0  0  0
  6 26  1  0  0  0  0
  7  8  1  0  0  0  0
  7 27  1  0  0  0  0
  8  9  1  0  0  0  0
  9 10  1  0  0  0  0
  9 28  1  0  0  0  0
  9 29  1  0  0  0  0
 10 11  2  0  0  0  0
 10 12  1  0  0  0  0
 12 13  1  0  0  0  0
 12 30  1  0  0  0  0
 13 19  2  0  0  0  0
 13 14  1  0  0  0  0
 14 15  2  0  0  0  0
 14 31  1  0  0  0  0
 15 16  1  0  0  0  0
 15 17  1  0  0  0  0
 17 18  2  0  0  0  0
 17 32  1  0  0  0  0
 18 19  1  0  0  0  0
 18 33  1  0  0  0  0
 19 20  1  0  0  0  0
 20 34  1  0  0  0  0
 20 35  1  0  0  0  0
 20 36  1  0  0  0  0
M  END
$$$$
