ZINC000000056442      none
 OpenBabel11202420153D

 27 28  0  0  0  0  0  0  0  0999 V2000
   34.2332   32.3440   55.2913 C   0  0  0  0  0  0  0  0  0  0  0  0
   33.9656   33.3627   56.3692 C   0  0  0  0  0  0  0  0  0  0  0  0
   34.5293   33.2757   57.4387 O   0  0  0  0  0  0  0  0  0  0  0  0
   33.1034   34.3662   56.1448 O   0  0  0  0  0  0  0  0  0  0  0  0
   32.9076   35.2512   57.1600 C   0  0  0  0  0  0  0  0  0  0  0  0
   32.4427   34.9669   58.3880 C   0  0  0  0  0  0  0  0  0  0  0  0
   32.3781   36.1206   59.1407 N   0  0  0  0  0  0  0  0  0  0  0  0
   31.9525   36.1915   60.4176 C   0  0  0  0  0  0  0  0  0  0  0  0
   31.4991   34.9440   61.1311 C   0  0  0  0  0  0  0  0  0  0  0  0
   31.9345   37.2589   60.9922 O   0  0  0  0  0  0  0  0  0  0  0  0
   32.8222   37.1936   58.3878 C   0  0  0  0  0  0  0  0  0  0  0  0
   32.9658   38.5499   58.6541 C   0  0  0  0  0  0  0  0  0  0  0  0
   33.4475   39.3960   57.6782 C   0  0  0  0  0  0  0  0  0  0  0  0
   33.7928   38.9068   56.4259 C   0  0  0  0  0  0  0  0  0  0  0  0
   34.4521   40.0869   55.1036 Br  0  0  0  0  0  0  0  0  0  0  0  0
   33.6577   37.5640   56.1416 C   0  0  0  0  0  0  0  0  0  0  0  0
   34.0899   36.9560   54.5740 Cl  0  0  0  0  0  0  0  0  0  0  0  0
   33.1710   36.6964   57.1211 C   0  0  0  0  0  0  0  0  0  0  0  0
   33.6406   32.5846   54.4088 H   0  0  0  0  0  0  0  0  0  0  0  0
   35.2920   32.3580   55.0329 H   0  0  0  0  0  0  0  0  0  0  0  0
   33.9605   31.3524   55.6528 H   0  0  0  0  0  0  0  0  0  0  0  0
   32.1598   33.9834   58.7329 H   0  0  0  0  0  0  0  0  0  0  0  0
   31.5858   34.0896   60.4598 H   0  0  0  0  0  0  0  0  0  0  0  0
   32.1231   34.7806   62.0096 H   0  0  0  0  0  0  0  0  0  0  0  0
   30.4601   35.0592   61.4399 H   0  0  0  0  0  0  0  0  0  0  0  0
   32.6998   38.9410   59.6250 H   0  0  0  0  0  0  0  0  0  0  0  0
   33.5571   40.4492   57.8900 H   0  0  0  0  0  0  0  0  0  0  0  0
  1  2  1  0  0  0  0
  1 19  1  0  0  0  0
  1 20  1  0  0  0  0
  1 21  1  0  0  0  0
  2  3  2  0  0  0  0
  2  4  1  0  0  0  0
  4  5  1  0  0  0  0
  5 18  1  0  0  0  0
  5  6  2  0  0  0  0
  6  7  1  0  0  0  0
  6 22  1  0  0  0  0
  7  8  1  0  0  0  0
  7 11  1  0  0  0  0
  8  9  1  0  0  0  0
  8 10  2  0  0  0  0
  9 23  1  0  0  0  0
  9 24  1  0  0  0  0
  9 25  1  0  0  0  0
 11 18  2  0  0  0  0
 11 12  1  0  0  0  0
 12 13  2  0  0  0  0
 12 26  1  0  0  0  0
 13 14  1  0  0  0  0
 13 27  1  0  0  0  0
 14 15  1  0  0  0  0
 14 16  2  0  0  0  0
 16 17  1  0  0  0  0
 16 18  1  0  0  0  0
M  END
$$$$
