ZINC000000040907      none
 OpenBabel11202420153D

 31 32  0  0  1  0  0  0  0  0999 V2000
   29.8542   39.5264   66.2131 O   0  0  0  0  0  0  0  0  0  0  0  0
   31.0258   39.4255   65.9054 C   0  0  0  0  0  0  0  0  0  0  0  0
   31.4123   38.4814   65.0246 N   0  0  0  0  0  0  0  0  0  0  0  0
   30.4204   37.5767   64.4383 C   0  0  1  0  0  0  0  0  0  0  0  0
   29.4587   38.0855   64.3723 H   0  0  0  0  0  0  0  0  0  0  0  0
   30.8552   37.1785   63.0972 N   0  0  0  0  0  0  0  0  0  0  0  0
   32.0246   36.5298   62.9320 C   0  0  0  0  0  0  0  0  0  0  0  0
   32.4399   36.1621   61.7493 N   0  0  0  0  0  0  0  0  0  0  0  0
   31.7245   36.4115   60.6498 C   0  0  0  0  0  0  0  0  0  0  0  0
   30.5328   37.0635   60.7484 C   0  0  0  0  0  0  0  0  0  0  0  0
   30.0819   37.4561   62.0256 C   0  0  0  0  0  0  0  0  0  0  0  0
   29.0182   38.0381   62.1591 O   0  0  0  0  0  0  0  0  0  0  0  0
   30.2804   36.3336   65.3192 C   0  0  0  0  0  0  0  0  0  0  0  0
   31.8486   36.0023   66.1448 Cl  0  0  0  0  0  0  0  0  0  0  0  0
   28.9981   36.6142   66.5551 Cl  0  0  0  0  0  0  0  0  0  0  0  0
   29.8295   34.9194   64.2956 Cl  0  0  0  0  0  0  0  0  0  0  0  0
   32.0269   40.3384   66.4973 C   0  0  0  0  0  0  0  0  0  0  0  0
   33.3559   39.9321   66.6271 C   0  0  0  0  0  0  0  0  0  0  0  0
   34.2858   40.7904   67.1762 C   0  0  0  0  0  0  0  0  0  0  0  0
   33.9016   42.0478   67.6072 C   0  0  0  0  0  0  0  0  0  0  0  0
   32.5849   42.4549   67.4858 C   0  0  0  0  0  0  0  0  0  0  0  0
   31.6459   41.6082   66.9341 C   0  0  0  0  0  0  0  0  0  0  0  0
   32.3472   38.4010   64.7790 H   0  0  0  0  0  0  0  0  0  0  0  0
   32.6325   36.3093   63.7969 H   0  0  0  0  0  0  0  0  0  0  0  0
   32.0905   36.0971   59.6836 H   0  0  0  0  0  0  0  0  0  0  0  0
   29.9438   37.2723   59.8676 H   0  0  0  0  0  0  0  0  0  0  0  0
   33.6562   38.9493   66.2952 H   0  0  0  0  0  0  0  0  0  0  0  0
   35.3153   40.4786   67.2738 H   0  0  0  0  0  0  0  0  0  0  0  0
   34.6326   42.7143   68.0406 H   0  0  0  0  0  0  0  0  0  0  0  0
   32.2914   43.4377   67.8242 H   0  0  0  0  0  0  0  0  0  0  0  0
   30.6183   41.9269   66.8406 H   0  0  0  0  0  0  0  0  0  0  0  0
  1  2  2  0  0  0  0
  2  3  1  0  0  0  0
  2 17  1  0  0  0  0
  3  4  1  0  0  0  0
  3 23  1  0  0  0  0
  4  5  1  6  0  0  0
  4  6  1  0  0  0  0
  4 13  1  0  0  0  0
  6 11  1  0  0  0  0
  6  7  1  0  0  0  0
  7  8  2  0  0  0  0
  7 24  1  0  0  0  0
  8  9  1  0  0  0  0
  9 10  2  0  0  0  0
  9 25  1  0  0  0  0
 10 11  1  0  0  0  0
 10 26  1  0  0  0  0
 11 12  2  0  0  0  0
 13 14  1  0  0  0  0
 13 15  1  0  0  0  0
 13 16  1  0  0  0  0
 17 22  2  0  0  0  0
 17 18  1  0  0  0  0
 18 19  2  0  0  0  0
 18 27  1  0  0  0  0
 19 20  1  0  0  0  0
 19 28  1  0  0  0  0
 20 21  2  0  0  0  0
 20 29  1  0  0  0  0
 21 22  1  0  0  0  0
 21 30  1  0  0  0  0
 22 31  1  0  0  0  0
M  END
$$$$
