ZINC000000005609      none
 OpenBabel11202420153D

 22 23  0  0  1  0  0  0  0  0999 V2000
   34.8724   31.6184   54.3950 C   0  0  0  0  0  0  0  0  0  0  0  0
   34.0836   32.9204   54.2410 C   0  0  0  0  0  0  0  0  0  0  0  0
   34.3445   33.8208   55.4502 C   0  0  1  0  0  0  0  0  0  0  0  0
   35.4048   34.0596   55.5325 H   0  0  0  0  0  0  0  0  0  0  0  0
   33.4941   35.1103   55.3702 C   0  0  0  0  0  0  0  0  0  0  0  0
   33.1357   35.3373   56.7803 N   0  0  0  0  0  0  0  0  0  0  0  0
   32.6430   36.2610   57.6660 C   0  0  0  0  0  0  0  0  0  0  0  0
   32.6263   35.6701   58.8734 C   0  0  0  0  0  0  0  0  0  0  0  0
   32.1754   36.2938   60.1380 N   0  0  0  0  0  0  0  0  0  0  0  0
   31.7738   37.4437   60.1406 O   0  0  0  0  0  0  0  0  0  0  0  0
   32.2012   35.6553   61.1749 O   0  0  0  0  0  0  0  0  0  0  0  0
   33.0832   34.4157   58.7344 N   0  0  0  0  0  0  0  0  0  0  0  0
   33.3899   34.1964   57.4721 C   0  0  0  0  0  0  0  0  0  0  0  0
   33.8606   33.2118   56.6616 O   0  0  0  0  0  0  0  0  0  0  0  0
   34.6866   30.9771   53.5335 H   0  0  0  0  0  0  0  0  0  0  0  0
   35.9370   31.8438   54.4572 H   0  0  0  0  0  0  0  0  0  0  0  0
   34.5555   31.1070   55.3039 H   0  0  0  0  0  0  0  0  0  0  0  0
   33.0190   32.6951   54.1788 H   0  0  0  0  0  0  0  0  0  0  0  0
   34.4005   33.4319   53.3322 H   0  0  0  0  0  0  0  0  0  0  0  0
   32.6024   34.9499   54.7643 H   0  0  0  0  0  0  0  0  0  0  0  0
   34.0842   35.9404   54.9817 H   0  0  0  0  0  0  0  0  0  0  0  0
   32.3311   37.2696   57.4380 H   0  0  0  0  0  0  0  0  0  0  0  0
  1  2  1  0  0  0  0
  1 15  1  0  0  0  0
  1 16  1  0  0  0  0
  1 17  1  0  0  0  0
  2  3  1  0  0  0  0
  2 18  1  0  0  0  0
  2 19  1  0  0  0  0
  3  4  1  1  0  0  0
  3 14  1  0  0  0  0
  3  5  1  0  0  0  0
  5  6  1  0  0  0  0
  5 20  1  0  0  0  0
  5 21  1  0  0  0  0
  6 13  1  0  0  0  0
  6  7  1  0  0  0  0
  7  8  2  0  0  0  0
  7 22  1  0  0  0  0
  8  9  1  0  0  0  0
  8 12  1  0  0  0  0
  9 10  2  0  0  0  0
  9 11  2  0  0  0  0
 12 13  2  0  0  0  0
 13 14  1  0  0  0  0
M  END
$$$$
