ZINC000000038320      none
 OpenBabel11202420153D

 34 36  0  0  0  0  0  0  0  0999 V2000
   28.1572   33.3936   66.0984 C   0  0  0  0  0  0  0  0  0  0  0  0
   29.1300   32.5370   65.2854 C   0  0  0  0  0  0  0  0  0  0  0  0
   29.6064   33.2970   64.1436 O   0  0  0  0  0  0  0  0  0  0  0  0
   30.4782   32.6815   63.3191 C   0  0  0  0  0  0  0  0  0  0  0  0
   30.8304   31.5405   63.5488 O   0  0  0  0  0  0  0  0  0  0  0  0
   31.0017   33.3884   62.1453 C   0  0  0  0  0  0  0  0  0  0  0  0
   31.4876   32.6277   60.6367 S   0  0  0  0  0  0  0  0  0  0  0  0
   31.9184   34.1972   59.9593 C   0  0  0  0  0  0  0  0  0  0  0  0
   32.3907   34.7553   58.8580 N   0  0  0  0  0  0  0  0  0  0  0  0
   32.4765   36.0870   59.0397 C   0  0  0  0  0  0  0  0  0  0  0  0
   32.9632   37.0720   58.0428 C   0  0  0  0  0  0  0  0  0  0  0  0
   33.0005   38.4284   58.3606 C   0  0  0  0  0  0  0  0  0  0  0  0
   33.4537   39.3406   57.4296 C   0  0  0  0  0  0  0  0  0  0  0  0
   33.8704   38.9104   56.1814 C   0  0  0  0  0  0  0  0  0  0  0  0
   34.4388   40.0630   55.0144 Cl  0  0  0  0  0  0  0  0  0  0  0  0
   33.8300   37.5647   55.8589 C   0  0  0  0  0  0  0  0  0  0  0  0
   33.3842   36.6439   56.7850 C   0  0  0  0  0  0  0  0  0  0  0  0
   32.0360   36.3715   60.2879 C   0  0  0  0  0  0  0  0  0  0  0  0
   31.6788   35.1651   60.8775 N   0  0  0  0  0  0  0  0  0  0  0  0
   31.1809   34.7045   62.0585 C   0  0  0  0  0  0  0  0  0  0  0  0
   30.8516   35.6310   63.2005 C   0  0  0  0  0  0  0  0  0  0  0  0
   27.7997   32.8230   66.9555 H   0  0  0  0  0  0  0  0  0  0  0  0
   28.6676   34.2914   66.4468 H   0  0  0  0  0  0  0  0  0  0  0  0
   27.3113   33.6765   65.4717 H   0  0  0  0  0  0  0  0  0  0  0  0
   28.6197   31.6390   64.9369 H   0  0  0  0  0  0  0  0  0  0  0  0
   29.9760   32.2540   65.9120 H   0  0  0  0  0  0  0  0  0  0  0  0
   32.6756   38.7651   59.3340 H   0  0  0  0  0  0  0  0  0  0  0  0
   33.4829   40.3921   57.6749 H   0  0  0  0  0  0  0  0  0  0  0  0
   34.1520   37.2344   54.8824 H   0  0  0  0  0  0  0  0  0  0  0  0
   33.3572   35.5938   56.5340 H   0  0  0  0  0  0  0  0  0  0  0  0
   31.9746   37.3504   60.7400 H   0  0  0  0  0  0  0  0  0  0  0  0
   29.8162   35.9604   63.1141 H   0  0  0  0  0  0  0  0  0  0  0  0
   30.9880   35.1055   64.1456 H   0  0  0  0  0  0  0  0  0  0  0  0
   31.5124   36.4972   63.1677 H   0  0  0  0  0  0  0  0  0  0  0  0
  1  2  1  0  0  0  0
  1 22  1  0  0  0  0
  1 23  1  0  0  0  0
  1 24  1  0  0  0  0
  2  3  1  0  0  0  0
  2 25  1  0  0  0  0
  2 26  1  0  0  0  0
  3  4  1  0  0  0  0
  4  5  2  0  0  0  0
  4  6  1  0  0  0  0
  6 20  2  0  0  0  0
  6  7  1  0  0  0  0
  7  8  1  0  0  0  0
  8 19  1  0  0  0  0
  8  9  2  0  0  0  0
  9 10  1  0  0  0  0
 10 11  1  0  0  0  0
 10 18  2  0  0  0  0
 11 17  2  0  0  0  0
 11 12  1  0  0  0  0
 12 13  2  0  0  0  0
 12 27  1  0  0  0  0
 13 14  1  0  0  0  0
 13 28  1  0  0  0  0
 14 15  1  0  0  0  0
 14 16  2  0  0  0  0
 16 17  1  0  0  0  0
 16 29  1  0  0  0  0
 17 30  1  0  0  0  0
 18 19  1  0  0  0  0
 18 31  1  0  0  0  0
 19 20  1  0  0  0  0
 20 21  1  0  0  0  0
 21 32  1  0  0  0  0
 21 33  1  0  0  0  0
 21 34  1  0  0  0  0
M  END
$$$$
