ZINC000000057505      none
 OpenBabel11202420153D

 28 29  0  0  1  0  0  0  0  0999 V2000
   30.0483   35.2575   62.2009 N   0  0  0  0  0  0  0  0  0  0  0  0
   31.0600   36.1472   62.1658 C   0  0  0  0  0  0  0  0  0  0  0  0
   32.1354   35.8618   62.6485 O   0  0  0  0  0  0  0  0  0  0  0  0
   30.8551   37.4966   61.5270 C   0  0  1  0  0  0  0  0  0  0  0  0
   30.1167   37.4128   60.7297 H   0  0  0  0  0  0  0  0  0  0  0  0
   30.3781   38.4496   62.5380 N   0  0  0  0  0  0  0  0  0  0  0  0
   32.1805   37.9917   60.9446 C   0  0  0  0  0  0  0  0  0  0  0  0
   32.4244   37.3263   59.6146 C   0  0  0  0  0  0  0  0  0  0  0  0
   32.2579   36.0250   59.3303 C   0  0  0  0  0  0  0  0  0  0  0  0
   32.5772   35.7890   58.0209 N   0  0  0  0  0  0  0  0  0  0  0  0
   32.5348   34.9240   57.5841 H   0  0  0  0  0  0  0  0  0  0  0  0
   32.9669   36.9626   57.4154 C   0  0  0  0  0  0  0  0  0  0  0  0
   33.3848   37.2832   56.1277 C   0  0  0  0  0  0  0  0  0  0  0  0
   33.7155   38.5844   55.8197 C   0  0  0  0  0  0  0  0  0  0  0  0
   33.6362   39.5818   56.7821 C   0  0  0  0  0  0  0  0  0  0  0  0
   33.2283   39.2893   58.0529 C   0  0  0  0  0  0  0  0  0  0  0  0
   32.8823   37.9781   58.3852 C   0  0  0  0  0  0  0  0  0  0  0  0
   29.1882   35.4859   61.8149 H   0  0  0  0  0  0  0  0  0  0  0  0
   30.1802   34.3890   62.6122 H   0  0  0  0  0  0  0  0  0  0  0  0
   31.0458   38.5450   63.2886 H   0  0  0  0  0  0  0  0  0  0  0  0
   30.1716   39.3453   62.1218 H   0  0  0  0  0  0  0  0  0  0  0  0
   32.1362   39.0722   60.8077 H   0  0  0  0  0  0  0  0  0  0  0  0
   32.9926   37.7451   61.6286 H   0  0  0  0  0  0  0  0  0  0  0  0
   31.9217   35.2753   60.0313 H   0  0  0  0  0  0  0  0  0  0  0  0
   33.4501   36.5142   55.3721 H   0  0  0  0  0  0  0  0  0  0  0  0
   34.0400   38.8311   54.8196 H   0  0  0  0  0  0  0  0  0  0  0  0
   33.8994   40.5971   56.5244 H   0  0  0  0  0  0  0  0  0  0  0  0
   33.1687   40.0705   58.7962 H   0  0  0  0  0  0  0  0  0  0  0  0
  1  2  1  0  0  0  0
  1 18  1  0  0  0  0
  1 19  1  0  0  0  0
  2  3  2  0  0  0  0
  2  4  1  0  0  0  0
  4  5  1  6  0  0  0
  4  6  1  0  0  0  0
  4  7  1  0  0  0  0
  6 20  1  0  0  0  0
  6 21  1  0  0  0  0
  7  8  1  0  0  0  0
  7 22  1  0  0  0  0
  7 23  1  0  0  0  0
  8 17  1  0  0  0  0
  8  9  2  0  0  0  0
  9 10  1  0  0  0  0
  9 24  1  0  0  0  0
 10 11  1  0  0  0  0
 10 12  1  0  0  0  0
 12 17  2  0  0  0  0
 12 13  1  0  0  0  0
 13 14  2  0  0  0  0
 13 25  1  0  0  0  0
 14 15  1  0  0  0  0
 14 26  1  0  0  0  0
 15 16  2  0  0  0  0
 15 27  1  0  0  0  0
 16 17  1  0  0  0  0
 16 28  1  0  0  0  0
M  END
$$$$
