ZINC000000053528      none
 OpenBabel11202420153D

 37 38  0  0  1  0  0  0  0  0999 V2000
   29.3607   37.5094   63.7361 C   0  0  0  0  0  0  0  0  0  0  0  0
   30.0747   37.0662   62.5520 O   0  0  0  0  0  0  0  0  0  0  0  0
   30.6703   38.0166   61.8052 C   0  0  0  0  0  0  0  0  0  0  0  0
   30.5951   39.1838   62.1345 O   0  0  0  0  0  0  0  0  0  0  0  0
   31.4135   37.6401   60.5885 C   0  0  0  0  0  0  0  0  0  0  0  0
   32.0326   38.6248   59.8128 C   0  0  0  0  0  0  0  0  0  0  0  0
   32.7258   38.2697   58.6779 C   0  0  0  0  0  0  0  0  0  0  0  0
   32.8113   36.9325   58.3027 C   0  0  0  0  0  0  0  0  0  0  0  0
   33.5147   36.5765   57.1528 N   0  0  0  0  0  0  0  0  0  0  0  0
   33.1455   35.4897   56.4465 C   0  0  0  0  0  0  0  0  0  0  0  0
   32.2014   34.8215   56.8110 O   0  0  0  0  0  0  0  0  0  0  0  0
   33.9058   35.1048   55.2036 C   0  0  0  0  0  0  0  0  0  0  0  0
   33.8465   33.5872   55.0188 C   0  0  2  0  0  0  0  0  0  0  0  0
   32.8494   33.2267   55.2719 H   0  0  0  0  0  0  0  0  0  0  0  0
   35.0730   32.7942   56.1021 S   0  0  0  0  0  0  0  0  0  0  0  0
   35.1677   31.1293   55.3719 C   0  0  0  0  0  0  0  0  0  0  0  0
   35.6572   31.2668   53.9307 C   0  0  0  0  0  0  0  0  0  0  0  0
   34.8818   32.2254   53.1754 N   0  0  0  0  0  0  0  0  0  0  0  0
   34.1577   33.2425   53.5910 C   0  0  0  0  0  0  0  0  0  0  0  0
   33.6970   33.9723   52.7389 O   0  0  0  0  0  0  0  0  0  0  0  0
   32.1916   35.9503   59.0692 C   0  0  0  0  0  0  0  0  0  0  0  0
   31.5011   36.2976   60.2082 C   0  0  0  0  0  0  0  0  0  0  0  0
   28.5647   38.1948   63.4451 H   0  0  0  0  0  0  0  0  0  0  0  0
   28.9296   36.6470   64.2445 H   0  0  0  0  0  0  0  0  0  0  0  0
   30.0518   38.0190   64.4075 H   0  0  0  0  0  0  0  0  0  0  0  0
   31.9673   39.6628   60.1038 H   0  0  0  0  0  0  0  0  0  0  0  0
   33.2044   39.0299   58.0782 H   0  0  0  0  0  0  0  0  0  0  0  0
   34.2698   37.1110   56.8613 H   0  0  0  0  0  0  0  0  0  0  0  0
   34.9450   35.4185   55.3016 H   0  0  0  0  0  0  0  0  0  0  0  0
   33.4587   35.5939   54.3380 H   0  0  0  0  0  0  0  0  0  0  0  0
   34.1808   30.6665   55.3824 H   0  0  0  0  0  0  0  0  0  0  0  0
   35.8675   30.5173   55.9411 H   0  0  0  0  0  0  0  0  0  0  0  0
   36.6994   31.5857   53.9409 H   0  0  0  0  0  0  0  0  0  0  0  0
   35.5907   30.2952   53.4412 H   0  0  0  0  0  0  0  0  0  0  0  0
   34.8973   32.1004   52.2137 H   0  0  0  0  0  0  0  0  0  0  0  0
   32.2563   34.9139   58.7726 H   0  0  0  0  0  0  0  0  0  0  0  0
   31.0238   35.5344   60.8049 H   0  0  0  0  0  0  0  0  0  0  0  0
  1  2  1  0  0  0  0
  1 23  1  0  0  0  0
  1 24  1  0  0  0  0
  1 25  1  0  0  0  0
  2  3  1  0  0  0  0
  3  4  2  0  0  0  0
  3  5  1  0  0  0  0
  5 22  2  0  0  0  0
  5  6  1  0  0  0  0
  6  7  2  0  0  0  0
  6 26  1  0  0  0  0
  7  8  1  0  0  0  0
  7 27  1  0  0  0  0
  8  9  1  0  0  0  0
  8 21  2  0  0  0  0
  9 10  1  0  0  0  0
  9 28  1  0  0  0  0
 10 11  2  0  0  0  0
 10 12  1  0  0  0  0
 12 13  1  0  0  0  0
 12 29  1  0  0  0  0
 12 30  1  0  0  0  0
 13 14  1  1  0  0  0
 13 19  1  0  0  0  0
 13 15  1  0  0  0  0
 15 16  1  0  0  0  0
 16 17  1  0  0  0  0
 16 31  1  0  0  0  0
 16 32  1  0  0  0  0
 17 18  1  0  0  0  0
 17 33  1  0  0  0  0
 17 34  1  0  0  0  0
 18 19  1  0  0  0  0
 18 35  1  0  0  0  0
 19 20  2  0  0  0  0
 21 22  1  0  0  0  0
 21 36  1  0  0  0  0
 22 37  1  0  0  0  0
M  END
$$$$
