ZINC000000029520      none
 OpenBabel11202420163D

 32 33  0  0  0  0  0  0  0  0999 V2000
   33.0312   36.6778   65.0908 C   0  0  0  0  0  0  0  0  0  0  0  0
   31.2702   36.2731   64.9301 S   0  0  0  0  0  0  0  0  0  0  0  0
   30.4734   37.2370   65.6049 O   0  0  0  0  0  0  0  0  0  0  0  0
   31.0586   34.8815   65.1251 O   0  0  0  0  0  0  0  0  0  0  0  0
   30.9349   36.5164   63.3268 N   0  0  0  0  0  0  0  0  0  0  0  0
   30.4777   37.8275   62.8416 C   0  0  0  0  0  0  0  0  0  0  0  0
   31.3511   38.2377   61.6511 C   0  0  0  0  0  0  0  0  0  0  0  0
   31.3396   37.1654   60.6471 N   0  0  0  0  0  0  0  0  0  0  0  0
   31.9904   37.5678   59.4768 C   0  0  0  0  0  0  0  0  0  0  0  0
   32.5389   38.8406   59.3887 C   0  0  0  0  0  0  0  0  0  0  0  0
   33.1855   39.2342   58.2332 C   0  0  0  0  0  0  0  0  0  0  0  0
   33.2783   38.3652   57.1603 C   0  0  0  0  0  0  0  0  0  0  0  0
   33.9072   38.7539   56.0295 F   0  0  0  0  0  0  0  0  0  0  0  0
   32.7273   37.0970   57.2438 C   0  0  0  0  0  0  0  0  0  0  0  0
   32.0844   36.6972   58.3989 C   0  0  0  0  0  0  0  0  0  0  0  0
   31.9303   35.9303   61.1798 C   0  0  0  0  0  0  0  0  0  0  0  0
   31.0806   35.4256   62.3510 C   0  0  0  0  0  0  0  0  0  0  0  0
   33.1945   37.7137   64.7936 H   0  0  0  0  0  0  0  0  0  0  0  0
   33.3417   36.5439   66.1271 H   0  0  0  0  0  0  0  0  0  0  0  0
   33.6155   36.0191   64.4484 H   0  0  0  0  0  0  0  0  0  0  0  0
   29.4368   37.7583   62.5256 H   0  0  0  0  0  0  0  0  0  0  0  0
   30.5733   38.5661   63.6375 H   0  0  0  0  0  0  0  0  0  0  0  0
   32.3728   38.4070   61.9908 H   0  0  0  0  0  0  0  0  0  0  0  0
   30.9575   39.1534   61.2098 H   0  0  0  0  0  0  0  0  0  0  0  0
   32.4634   39.5206   60.2242 H   0  0  0  0  0  0  0  0  0  0  0  0
   33.6160   40.2224   58.1659 H   0  0  0  0  0  0  0  0  0  0  0  0
   32.8002   36.4203   56.4050 H   0  0  0  0  0  0  0  0  0  0  0  0
   31.6552   35.7082   58.4641 H   0  0  0  0  0  0  0  0  0  0  0  0
   32.9440   36.1318   61.5261 H   0  0  0  0  0  0  0  0  0  0  0  0
   31.9568   35.1726   60.3967 H   0  0  0  0  0  0  0  0  0  0  0  0
   31.5749   34.5761   62.8225 H   0  0  0  0  0  0  0  0  0  0  0  0
   30.0977   35.1255   61.9878 H   0  0  0  0  0  0  0  0  0  0  0  0
  1  2  1  0  0  0  0
  1 18  1  0  0  0  0
  1 19  1  0  0  0  0
  1 20  1  0  0  0  0
  2  3  2  0  0  0  0
  2  4  2  0  0  0  0
  2  5  1  0  0  0  0
  5 17  1  0  0  0  0
  5  6  1  0  0  0  0
  6  7  1  0  0  0  0
  6 21  1  0  0  0  0
  6 22  1  0  0  0  0
  7  8  1  0  0  0  0
  7 23  1  0  0  0  0
  7 24  1  0  0  0  0
  8  9  1  0  0  0  0
  8 16  1  0  0  0  0
  9 15  2  0  0  0  0
  9 10  1  0  0  0  0
 10 11  2  0  0  0  0
 10 25  1  0  0  0  0
 11 12  1  0  0  0  0
 11 26  1  0  0  0  0
 12 13  1  0  0  0  0
 12 14  2  0  0  0  0
 14 15  1  0  0  0  0
 14 27  1  0  0  0  0
 15 28  1  0  0  0  0
 16 17  1  0  0  0  0
 16 29  1  0  0  0  0
 16 30  1  0  0  0  0
 17 31  1  0  0  0  0
 17 32  1  0  0  0  0
M  END
$$$$
