ZINC000000035388      none
 OpenBabel11202420153D

 37 39  0  0  1  0  0  0  0  0999 V2000
   33.0759   35.8170   55.1123 C   0  0  0  0  0  0  0  0  0  0  0  0
   33.8214   37.0598   55.5255 C   0  0  0  0  0  0  0  0  0  0  0  0
   34.6929   37.5115   54.8098 O   0  0  0  0  0  0  0  0  0  0  0  0
   33.5076   37.6977   56.7420 C   0  0  0  0  0  0  0  0  0  0  0  0
   32.8988   36.9158   58.1990 S   0  0  0  0  0  0  0  0  0  0  0  0
   32.8484   38.4235   59.0023 C   0  0  0  0  0  0  0  0  0  0  0  0
   32.4299   38.6067   60.3071 N   0  0  0  0  0  0  0  0  0  0  0  0
   32.0225   37.5507   61.0387 C   0  0  0  0  0  0  0  0  0  0  0  0
   32.0232   36.4397   60.5526 O   0  0  0  0  0  0  0  0  0  0  0  0
   31.5662   37.7504   62.4610 C   0  0  2  0  0  0  0  0  0  0  0  0
   32.3696   38.1785   63.0606 H   0  0  0  0  0  0  0  0  0  0  0  0
   31.0958   36.4093   63.0693 C   0  0  0  0  0  0  0  0  0  0  0  0
   29.5949   36.6415   63.4223 C   0  0  1  0  0  0  0  0  0  0  0  0
   28.9900   35.7433   63.5458 H   0  0  0  0  0  0  0  0  0  0  0  0
   29.6257   37.6314   64.6267 C   0  0  0  0  0  0  0  0  0  0  0  0
   30.0983   38.9744   64.0188 C   0  0  0  0  0  0  0  0  0  0  0  0
   30.3070   38.6690   62.5040 C   0  0  2  0  0  0  0  0  0  0  0  0
   30.3200   39.5269   61.8317 H   0  0  0  0  0  0  0  0  0  0  0  0
   29.1704   37.6095   62.2621 C   0  0  0  0  0  0  0  0  0  0  0  0
   33.2594   39.3761   58.2146 N   0  0  0  0  0  0  0  0  0  0  0  0
   33.6229   39.0405   57.0057 C   0  0  0  0  0  0  0  0  0  0  0  0
   34.1180   40.0378   55.9900 C   0  0  0  0  0  0  0  0  0  0  0  0
   32.0131   36.0430   55.0245 H   0  0  0  0  0  0  0  0  0  0  0  0
   33.4539   35.4693   54.1509 H   0  0  0  0  0  0  0  0  0  0  0  0
   33.2214   35.0397   55.8625 H   0  0  0  0  0  0  0  0  0  0  0  0
   32.4294   39.4954   60.6960 H   0  0  0  0  0  0  0  0  0  0  0  0
   31.1946   35.6057   62.3396 H   0  0  0  0  0  0  0  0  0  0  0  0
   31.6666   36.1792   63.9689 H   0  0  0  0  0  0  0  0  0  0  0  0
   28.6298   37.7378   65.0566 H   0  0  0  0  0  0  0  0  0  0  0  0
   30.3323   37.2884   65.3825 H   0  0  0  0  0  0  0  0  0  0  0  0
   31.0365   39.2884   64.4761 H   0  0  0  0  0  0  0  0  0  0  0  0
   29.3366   39.7430   64.1499 H   0  0  0  0  0  0  0  0  0  0  0  0
   29.2541   37.1363   61.2837 H   0  0  0  0  0  0  0  0  0  0  0  0
   28.1776   38.0299   62.4229 H   0  0  0  0  0  0  0  0  0  0  0  0
   35.2004   40.1351   56.0741 H   0  0  0  0  0  0  0  0  0  0  0  0
   33.6509   41.0054   56.1734 H   0  0  0  0  0  0  0  0  0  0  0  0
   33.8607   39.6941   54.9881 H   0  0  0  0  0  0  0  0  0  0  0  0
  1  2  1  0  0  0  0
  1 23  1  0  0  0  0
  1 24  1  0  0  0  0
  1 25  1  0  0  0  0
  2  3  2  0  0  0  0
  2  4  1  0  0  0  0
  4 21  2  0  0  0  0
  4  5  1  0  0  0  0
  5  6  1  0  0  0  0
  6  7  1  0  0  0  0
  6 20  2  0  0  0  0
  7  8  1  0  0  0  0
  7 26  1  0  0  0  0
  8  9  2  0  0  0  0
  8 10  1  0  0  0  0
 10 11  1  1  0  0  0
 10 17  1  0  0  0  0
 10 12  1  0  0  0  0
 12 13  1  0  0  0  0
 12 27  1  0  0  0  0
 12 28  1  0  0  0  0
 13 14  1  1  0  0  0
 13 19  1  0  0  0  0
 13 15  1  0  0  0  0
 15 16  1  0  0  0  0
 15 29  1  0  0  0  0
 15 30  1  0  0  0  0
 16 17  1  0  0  0  0
 16 31  1  0  0  0  0
 16 32  1  0  0  0  0
 17 18  1  6  0  0  0
 17 19  1  0  0  0  0
 19 33  1  0  0  0  0
 19 34  1  0  0  0  0
 20 21  1  0  0  0  0
 21 22  1  0  0  0  0
 22 35  1  0  0  0  0
 22 36  1  0  0  0  0
 22 37  1  0  0  0  0
M  END
$$$$
