ZINC000000029863      none
 OpenBabel11202420163D

 33 34  0  0  0  0  0  0  0  0999 V2000
   33.5582   37.4405   66.4276 C   0  0  0  0  0  0  0  0  0  0  0  0
   32.6104   36.8221   65.4324 C   0  0  0  0  0  0  0  0  0  0  0  0
   33.1041   36.2213   64.2908 C   0  0  0  0  0  0  0  0  0  0  0  0
   32.2302   35.6511   63.3744 C   0  0  0  0  0  0  0  0  0  0  0  0
   32.7266   35.0430   62.2185 N   0  0  0  0  0  0  0  0  0  0  0  0
   31.9059   33.7809   61.5291 S   0  0  0  0  0  0  0  0  0  0  0  0
   32.9079   33.0465   60.8390 O   0  0  0  0  0  0  0  0  0  0  0  0
   31.1848   33.2009   62.6075 O   0  0  0  0  0  0  0  0  0  0  0  0
   30.7700   34.5675   60.3537 C   0  0  0  0  0  0  0  0  0  0  0  0
   31.4729   35.7067   59.6616 C   0  0  0  0  0  0  0  0  0  0  0  0
   31.4215   36.9792   60.1990 C   0  0  0  0  0  0  0  0  0  0  0  0
   32.0703   38.0233   59.5666 C   0  0  0  0  0  0  0  0  0  0  0  0
   32.7616   37.7968   58.3912 C   0  0  0  0  0  0  0  0  0  0  0  0
   32.8087   36.5253   57.8510 C   0  0  0  0  0  0  0  0  0  0  0  0
   32.1642   35.4802   58.4862 C   0  0  0  0  0  0  0  0  0  0  0  0
   30.8614   35.6868   63.6091 C   0  0  0  0  0  0  0  0  0  0  0  0
   30.3738   36.2887   64.7520 C   0  0  0  0  0  0  0  0  0  0  0  0
   31.2469   36.8560   65.6633 C   0  0  0  0  0  0  0  0  0  0  0  0
   30.5755   37.6726   67.2312 Br  0  0  0  0  0  0  0  0  0  0  0  0
   33.8486   36.6930   67.1658 H   0  0  0  0  0  0  0  0  0  0  0  0
   34.4455   37.8021   65.9081 H   0  0  0  0  0  0  0  0  0  0  0  0
   33.0658   38.2739   66.9288 H   0  0  0  0  0  0  0  0  0  0  0  0
   34.1688   36.1954   64.1109 H   0  0  0  0  0  0  0  0  0  0  0  0
   33.5522   35.3604   61.8199 H   0  0  0  0  0  0  0  0  0  0  0  0
   30.4488   33.8350   59.6133 H   0  0  0  0  0  0  0  0  0  0  0  0
   29.9001   34.9485   60.8888 H   0  0  0  0  0  0  0  0  0  0  0  0
   30.8776   37.1571   61.1149 H   0  0  0  0  0  0  0  0  0  0  0  0
   32.0332   39.0168   59.9885 H   0  0  0  0  0  0  0  0  0  0  0  0
   33.2648   38.6134   57.8947 H   0  0  0  0  0  0  0  0  0  0  0  0
   33.3485   36.3484   56.9325 H   0  0  0  0  0  0  0  0  0  0  0  0
   32.2007   34.4869   58.0639 H   0  0  0  0  0  0  0  0  0  0  0  0
   30.1794   35.2444   62.8978 H   0  0  0  0  0  0  0  0  0  0  0  0
   29.3096   36.3168   64.9350 H   0  0  0  0  0  0  0  0  0  0  0  0
  1  2  1  0  0  0  0
  1 20  1  0  0  0  0
  1 21  1  0  0  0  0
  1 22  1  0  0  0  0
  2 18  2  0  0  0  0
  2  3  1  0  0  0  0
  3  4  2  0  0  0  0
  3 23  1  0  0  0  0
  4  5  1  0  0  0  0
  4 16  1  0  0  0  0
  5  6  1  0  0  0  0
  5 24  1  0  0  0  0
  6  7  2  0  0  0  0
  6  8  2  0  0  0  0
  6  9  1  0  0  0  0
  9 10  1  0  0  0  0
  9 25  1  0  0  0  0
  9 26  1  0  0  0  0
 10 15  2  0  0  0  0
 10 11  1  0  0  0  0
 11 12  2  0  0  0  0
 11 27  1  0  0  0  0
 12 13  1  0  0  0  0
 12 28  1  0  0  0  0
 13 14  2  0  0  0  0
 13 29  1  0  0  0  0
 14 15  1  0  0  0  0
 14 30  1  0  0  0  0
 15 31  1  0  0  0  0
 16 17  2  0  0  0  0
 16 32  1  0  0  0  0
 17 18  1  0  0  0  0
 17 33  1  0  0  0  0
 18 19  1  0  0  0  0
M  END
$$$$
