ZINC000000043477      none
 OpenBabel11202420153D

 33 35  0  0  0  0  0  0  0  0999 V2000
   34.8530   31.0873   54.5652 C   0  0  0  0  0  0  0  0  0  0  0  0
   35.4389   32.4966   54.6720 C   0  0  0  0  0  0  0  0  0  0  0  0
   34.3631   33.4714   54.6445 O   0  0  0  0  0  0  0  0  0  0  0  0
   34.7108   34.7651   54.7296 C   0  0  0  0  0  0  0  0  0  0  0  0
   35.8754   35.0728   54.8239 O   0  0  0  0  0  0  0  0  0  0  0  0
   33.6485   35.8338   54.7073 C   0  0  0  0  0  0  0  0  0  0  0  0
   32.5107   35.3824   53.9698 O   0  0  0  0  0  0  0  0  0  0  0  0
   33.2449   36.1945   56.1160 C   0  0  0  0  0  0  0  0  0  0  0  0
   32.6894   35.4541   57.1382 C   0  0  0  0  0  0  0  0  0  0  0  0
   32.4152   36.0510   58.3558 C   0  0  0  0  0  0  0  0  0  0  0  0
   32.6975   37.3913   58.5505 C   0  0  0  0  0  0  0  0  0  0  0  0
   33.2531   38.1394   57.5336 C   0  0  0  0  0  0  0  0  0  0  0  0
   33.5325   37.5437   56.3022 C   0  0  0  0  0  0  0  0  0  0  0  0
   34.1184   38.1003   55.0577 C   0  0  0  0  0  0  0  0  0  0  0  0
   34.5649   39.3860   54.7464 C   0  0  0  0  0  0  0  0  0  0  0  0
   35.0789   39.6525   53.4946 C   0  0  0  0  0  0  0  0  0  0  0  0
   35.1523   38.6507   52.5433 C   0  0  0  0  0  0  0  0  0  0  0  0
   34.7109   37.3745   52.8445 C   0  0  0  0  0  0  0  0  0  0  0  0
   34.1968   37.0988   54.0939 C   0  0  0  0  0  0  0  0  0  0  0  0
   35.6606   30.3556   54.5859 H   0  0  0  0  0  0  0  0  0  0  0  0
   34.1798   30.9091   55.4038 H   0  0  0  0  0  0  0  0  0  0  0  0
   34.3012   30.9932   53.6300 H   0  0  0  0  0  0  0  0  0  0  0  0
   36.1122   32.6746   53.8336 H   0  0  0  0  0  0  0  0  0  0  0  0
   35.9907   32.5908   55.6074 H   0  0  0  0  0  0  0  0  0  0  0  0
   32.6967   35.1849   53.0417 H   0  0  0  0  0  0  0  0  0  0  0  0
   32.4686   34.4077   56.9883 H   0  0  0  0  0  0  0  0  0  0  0  0
   31.9843   35.4688   59.1569 H   0  0  0  0  0  0  0  0  0  0  0  0
   32.4816   37.8537   59.5023 H   0  0  0  0  0  0  0  0  0  0  0  0
   33.4722   39.1852   57.6901 H   0  0  0  0  0  0  0  0  0  0  0  0
   34.5088   40.1713   55.4858 H   0  0  0  0  0  0  0  0  0  0  0  0
   35.4252   40.6474   53.2559 H   0  0  0  0  0  0  0  0  0  0  0  0
   35.5550   38.8651   51.5644 H   0  0  0  0  0  0  0  0  0  0  0  0
   34.7694   36.5937   52.1007 H   0  0  0  0  0  0  0  0  0  0  0  0
  1  2  1  0  0  0  0
  1 20  1  0  0  0  0
  1 21  1  0  0  0  0
  1 22  1  0  0  0  0
  2  3  1  0  0  0  0
  2 23  1  0  0  0  0
  2 24  1  0  0  0  0
  3  4  1  0  0  0  0
  4  5  2  0  0  0  0
  4  6  1  0  0  0  0
  6 19  1  0  0  0  0
  6  7  1  0  0  0  0
  6  8  1  0  0  0  0
  7 25  1  0  0  0  0
  8 13  2  0  0  0  0
  8  9  1  0  0  0  0
  9 10  2  0  0  0  0
  9 26  1  0  0  0  0
 10 11  1  0  0  0  0
 10 27  1  0  0  0  0
 11 12  2  0  0  0  0
 11 28  1  0  0  0  0
 12 13  1  0  0  0  0
 12 29  1  0  0  0  0
 13 14  1  0  0  0  0
 14 19  2  0  0  0  0
 14 15  1  0  0  0  0
 15 16  2  0  0  0  0
 15 30  1  0  0  0  0
 16 17  1  0  0  0  0
 16 31  1  0  0  0  0
 17 18  2  0  0  0  0
 17 32  1  0  0  0  0
 18 19  1  0  0  0  0
 18 33  1  0  0  0  0
M  END
$$$$
