ZINC000000051017      none
 OpenBabel11202420153D

 42 44  0  0  0  0  0  0  0  0999 V2000
   33.2971   39.1642   59.6518 O   0  0  0  0  0  0  0  0  0  0  0  0
   32.7962   38.2866   58.9815 C   0  0  0  0  0  0  0  0  0  0  0  0
   31.7364   37.3958   59.5768 C   0  0  0  0  0  0  0  0  0  0  0  0
   31.9643   37.2598   61.0043 O   0  0  0  0  0  0  0  0  0  0  0  0
   31.3674   38.1619   61.8079 C   0  0  0  0  0  0  0  0  0  0  0  0
   30.6753   39.0383   61.3287 O   0  0  0  0  0  0  0  0  0  0  0  0
   31.5540   38.0857   63.2686 C   0  0  0  0  0  0  0  0  0  0  0  0
   30.9359   39.0208   64.1040 C   0  0  0  0  0  0  0  0  0  0  0  0
   31.1130   38.9464   65.4672 C   0  0  0  0  0  0  0  0  0  0  0  0
   31.9054   37.9428   66.0135 C   0  0  0  0  0  0  0  0  0  0  0  0
   32.0820   37.8764   67.3570 O   0  0  0  0  0  0  0  0  0  0  0  0
   31.9786   36.6597   67.9549 C   0  0  0  0  0  0  0  0  0  0  0  0
   32.9205   36.2661   68.8943 C   0  0  0  0  0  0  0  0  0  0  0  0
   32.8126   35.0321   69.5053 C   0  0  0  0  0  0  0  0  0  0  0  0
   31.7682   34.1823   69.1721 C   0  0  0  0  0  0  0  0  0  0  0  0
   31.6647   32.9654   69.7701 O   0  0  0  0  0  0  0  0  0  0  0  0
   30.8295   34.5734   68.2287 C   0  0  0  0  0  0  0  0  0  0  0  0
   30.9343   35.8095   67.6215 C   0  0  0  0  0  0  0  0  0  0  0  0
   32.5219   37.0107   65.1861 C   0  0  0  0  0  0  0  0  0  0  0  0
   32.3499   37.0782   63.8219 C   0  0  0  0  0  0  0  0  0  0  0  0
   33.2232   38.0915   57.5868 C   0  0  0  0  0  0  0  0  0  0  0  0
   33.1854   36.8171   57.0119 C   0  0  0  0  0  0  0  0  0  0  0  0
   33.5813   36.6434   55.7025 C   0  0  0  0  0  0  0  0  0  0  0  0
   34.0264   37.7242   54.9613 C   0  0  0  0  0  0  0  0  0  0  0  0
   34.0726   38.9874   55.5250 C   0  0  0  0  0  0  0  0  0  0  0  0
   33.6742   39.1784   56.8311 C   0  0  0  0  0  0  0  0  0  0  0  0
   31.7811   36.4135   59.1065 H   0  0  0  0  0  0  0  0  0  0  0  0
   30.7538   37.8360   59.4061 H   0  0  0  0  0  0  0  0  0  0  0  0
   30.3206   39.8009   63.6805 H   0  0  0  0  0  0  0  0  0  0  0  0
   30.6362   39.6688   66.1132 H   0  0  0  0  0  0  0  0  0  0  0  0
   33.7357   36.9263   69.1509 H   0  0  0  0  0  0  0  0  0  0  0  0
   33.5438   34.7272   70.2393 H   0  0  0  0  0  0  0  0  0  0  0  0
   30.9055   32.4449   69.4737 H   0  0  0  0  0  0  0  0  0  0  0  0
   30.0165   33.9115   67.9692 H   0  0  0  0  0  0  0  0  0  0  0  0
   30.2035   36.1139   66.8869 H   0  0  0  0  0  0  0  0  0  0  0  0
   33.1365   36.2328   65.6143 H   0  0  0  0  0  0  0  0  0  0  0  0
   32.8293   36.3540   63.1799 H   0  0  0  0  0  0  0  0  0  0  0  0
   32.8425   35.9721   57.5905 H   0  0  0  0  0  0  0  0  0  0  0  0
   33.5479   35.6608   55.2555 H   0  0  0  0  0  0  0  0  0  0  0  0
   34.3398   37.5810   53.9378 H   0  0  0  0  0  0  0  0  0  0  0  0
   34.4211   39.8257   54.9401 H   0  0  0  0  0  0  0  0  0  0  0  0
   33.7108   40.1646   57.2697 H   0  0  0  0  0  0  0  0  0  0  0  0
  1  2  2  0  0  0  0
  2  3  1  0  0  0  0
  2 21  1  0  0  0  0
  3  4  1  0  0  0  0
  3 27  1  0  0  0  0
  3 28  1  0  0  0  0
  4  5  1  0  0  0  0
  5  6  2  0  0  0  0
  5  7  1  0  0  0  0
  7 20  2  0  0  0  0
  7  8  1  0  0  0  0
  8  9  2  0  0  0  0
  8 29  1  0  0  0  0
  9 10  1  0  0  0  0
  9 30  1  0  0  0  0
 10 11  1  0  0  0  0
 10 19  2  0  0  0  0
 11 12  1  0  0  0  0
 12 18  2  0  0  0  0
 12 13  1  0  0  0  0
 13 14  2  0  0  0  0
 13 31  1  0  0  0  0
 14 15  1  0  0  0  0
 14 32  1  0  0  0  0
 15 16  1  0  0  0  0
 15 17  2  0  0  0  0
 16 33  1  0  0  0  0
 17 18  1  0  0  0  0
 17 34  1  0  0  0  0
 18 35  1  0  0  0  0
 19 20  1  0  0  0  0
 19 36  1  0  0  0  0
 20 37  1  0  0  0  0
 21 26  2  0  0  0  0
 21 22  1  0  0  0  0
 22 23  2  0  0  0  0
 22 38  1  0  0  0  0
 23 24  1  0  0  0  0
 23 39  1  0  0  0  0
 24 25  2  0  0  0  0
 24 40  1  0  0  0  0
 25 26  1  0  0  0  0
 25 41  1  0  0  0  0
 26 42  1  0  0  0  0
M  END
$$$$
