ZINC000000016249      none
 OpenBabel11202420153D

 39 42  0  0  0  0  0  0  0  0999 V2000
   29.7222   39.4222   66.1501 C   0  0  0  0  0  0  0  0  0  0  0  0
   29.5736   38.7731   64.7726 C   0  0  0  0  0  0  0  0  0  0  0  0
   30.9387   38.5119   64.1904 C   0  0  0  0  0  0  0  0  0  0  0  0
   31.8652   39.2328   64.4758 O   0  0  0  0  0  0  0  0  0  0  0  0
   31.1443   37.3731   63.2694 C   0  0  0  0  0  0  0  0  0  0  0  0
   31.5992   37.5903   61.9541 C   0  0  0  0  0  0  0  0  0  0  0  0
   31.7864   36.5294   61.1080 C   0  0  0  0  0  0  0  0  0  0  0  0
   31.5342   35.2556   61.5312 N   0  0  0  0  0  0  0  0  0  0  0  0
   31.1028   35.0127   62.7860 C   0  0  0  0  0  0  0  0  0  0  0  0
   30.8892   33.8656   63.1416 O   0  0  0  0  0  0  0  0  0  0  0  0
   30.8918   36.0756   63.6873 C   0  0  0  0  0  0  0  0  0  0  0  0
   30.4041   35.8049   65.0873 C   0  0  0  0  0  0  0  0  0  0  0  0
   31.8180   34.3282   60.4271 C   0  0  0  0  0  0  0  0  0  0  0  0
   32.2766   35.1722   59.2663 C   0  0  0  0  0  0  0  0  0  0  0  0
   32.6689   34.8655   58.0008 C   0  0  0  0  0  0  0  0  0  0  0  0
   33.0450   35.9218   57.1470 C   0  0  0  0  0  0  0  0  0  0  0  0
   33.4612   35.6809   55.8288 C   0  0  0  0  0  0  0  0  0  0  0  0
   33.8172   36.7272   55.0330 C   0  0  0  0  0  0  0  0  0  0  0  0
   33.7739   38.0359   55.5105 C   0  0  0  0  0  0  0  0  0  0  0  0
   33.3760   38.3067   56.7829 C   0  0  0  0  0  0  0  0  0  0  0  0
   32.9999   37.2524   57.6369 C   0  0  0  0  0  0  0  0  0  0  0  0
   32.6068   37.4918   58.8882 N   0  0  0  0  0  0  0  0  0  0  0  0
   32.2506   36.5084   59.7001 C   0  0  0  0  0  0  0  0  0  0  0  0
   30.2616   40.3644   66.0516 H   0  0  0  0  0  0  0  0  0  0  0  0
   28.7349   39.6112   66.5713 H   0  0  0  0  0  0  0  0  0  0  0  0
   30.2763   38.7536   66.8090 H   0  0  0  0  0  0  0  0  0  0  0  0
   29.0194   39.4417   64.1139 H   0  0  0  0  0  0  0  0  0  0  0  0
   29.0343   37.8310   64.8712 H   0  0  0  0  0  0  0  0  0  0  0  0
   31.8011   38.5947   61.6124 H   0  0  0  0  0  0  0  0  0  0  0  0
   29.3209   35.9210   65.1236 H   0  0  0  0  0  0  0  0  0  0  0  0
   30.6702   34.7876   65.3745 H   0  0  0  0  0  0  0  0  0  0  0  0
   30.8684   36.5102   65.7765 H   0  0  0  0  0  0  0  0  0  0  0  0
   32.6050   33.6319   60.7168 H   0  0  0  0  0  0  0  0  0  0  0  0
   30.9148   33.7807   60.1573 H   0  0  0  0  0  0  0  0  0  0  0  0
   32.6914   33.8410   57.6596 H   0  0  0  0  0  0  0  0  0  0  0  0
   33.4990   34.6712   55.4473 H   0  0  0  0  0  0  0  0  0  0  0  0
   34.1377   36.5403   54.0187 H   0  0  0  0  0  0  0  0  0  0  0  0
   34.0611   38.8484   54.8596 H   0  0  0  0  0  0  0  0  0  0  0  0
   33.3490   39.3268   57.1368 H   0  0  0  0  0  0  0  0  0  0  0  0
  1  2  1  0  0  0  0
  1 24  1  0  0  0  0
  1 25  1  0  0  0  0
  1 26  1  0  0  0  0
  2  3  1  0  0  0  0
  2 27  1  0  0  0  0
  2 28  1  0  0  0  0
  3  4  2  0  0  0  0
  3  5  1  0  0  0  0
  5 11  2  0  0  0  0
  5  6  1  0  0  0  0
  6  7  2  0  0  0  0
  6 29  1  0  0  0  0
  7 23  1  0  0  0  0
  7  8  1  0  0  0  0
  8  9  1  0  0  0  0
  8 13  1  0  0  0  0
  9 10  2  0  0  0  0
  9 11  1  0  0  0  0
 11 12  1  0  0  0  0
 12 30  1  0  0  0  0
 12 31  1  0  0  0  0
 12 32  1  0  0  0  0
 13 14  1  0  0  0  0
 13 33  1  0  0  0  0
 13 34  1  0  0  0  0
 14 23  2  0  0  0  0
 14 15  1  0  0  0  0
 15 16  2  0  0  0  0
 15 35  1  0  0  0  0
 16 21  1  0  0  0  0
 16 17  1  0  0  0  0
 17 18  2  0  0  0  0
 17 36  1  0  0  0  0
 18 19  1  0  0  0  0
 18 37  1  0  0  0  0
 19 20  2  0  0  0  0
 19 38  1  0  0  0  0
 20 21  1  0  0  0  0
 20 39  1  0  0  0  0
 21 22  2  0  0  0  0
 22 23  1  0  0  0  0
M  END
$$$$
