ZINC000000042075      none
 OpenBabel11202420153D

 34 35  0  0  0  0  0  0  0  0999 V2000
   31.6176   38.1889   66.3472 N   0  0  0  0  0  0  0  0  0  0  0  0
   31.7414   36.8472   66.3766 C   0  0  0  0  0  0  0  0  0  0  0  0
   31.9524   36.2805   67.4280 O   0  0  0  0  0  0  0  0  0  0  0  0
   31.6178   36.0509   65.1031 C   0  0  0  0  0  0  0  0  0  0  0  0
   32.6935   36.5020   64.1112 C   0  0  0  0  0  0  0  0  0  0  0  0
   32.5247   35.7334   62.7987 C   0  0  0  0  0  0  0  0  0  0  0  0
   31.1876   35.9894   62.2483 N   0  0  0  0  0  0  0  0  0  0  0  0
   31.0393   35.3792   60.9202 C   0  0  0  0  0  0  0  0  0  0  0  0
   31.6892   36.2622   59.8863 C   0  0  0  0  0  0  0  0  0  0  0  0
   32.2403   35.7033   58.7484 C   0  0  0  0  0  0  0  0  0  0  0  0
   32.8316   36.5131   57.7972 C   0  0  0  0  0  0  0  0  0  0  0  0
   32.8818   37.8823   57.9894 C   0  0  0  0  0  0  0  0  0  0  0  0
   33.6300   38.8996   56.7981 Cl  0  0  0  0  0  0  0  0  0  0  0  0
   32.3350   38.4405   59.1311 C   0  0  0  0  0  0  0  0  0  0  0  0
   31.7390   37.6302   60.0790 C   0  0  0  0  0  0  0  0  0  0  0  0
   30.1385   35.5213   63.1629 C   0  0  0  0  0  0  0  0  0  0  0  0
   30.2359   36.2835   64.4861 C   0  0  0  0  0  0  0  0  0  0  0  0
   31.4490   38.6420   65.5063 H   0  0  0  0  0  0  0  0  0  0  0  0
   31.6972   38.7013   67.1670 H   0  0  0  0  0  0  0  0  0  0  0  0
   31.7454   34.9907   65.3215 H   0  0  0  0  0  0  0  0  0  0  0  0
   33.6804   36.2994   64.5273 H   0  0  0  0  0  0  0  0  0  0  0  0
   32.5897   37.5707   63.9229 H   0  0  0  0  0  0  0  0  0  0  0  0
   32.6424   34.6658   62.9853 H   0  0  0  0  0  0  0  0  0  0  0  0
   33.2803   36.0625   62.0853 H   0  0  0  0  0  0  0  0  0  0  0  0
   31.5181   34.4001   60.9147 H   0  0  0  0  0  0  0  0  0  0  0  0
   29.9801   35.2670   60.6884 H   0  0  0  0  0  0  0  0  0  0  0  0
   32.2049   34.6340   58.6006 H   0  0  0  0  0  0  0  0  0  0  0  0
   33.2582   36.0768   56.9061 H   0  0  0  0  0  0  0  0  0  0  0  0
   32.3742   39.5092   59.2818 H   0  0  0  0  0  0  0  0  0  0  0  0
   31.3119   38.0658   60.9701 H   0  0  0  0  0  0  0  0  0  0  0  0
   29.1607   35.6964   62.7139 H   0  0  0  0  0  0  0  0  0  0  0  0
   30.2674   34.4548   63.3479 H   0  0  0  0  0  0  0  0  0  0  0  0
   30.0934   37.3487   64.3038 H   0  0  0  0  0  0  0  0  0  0  0  0
   29.4664   35.9254   65.1701 H   0  0  0  0  0  0  0  0  0  0  0  0
  1  2  1  0  0  0  0
  1 18  1  0  0  0  0
  1 19  1  0  0  0  0
  2  3  2  0  0  0  0
  2  4  1  0  0  0  0
  4 17  1  0  0  0  0
  4  5  1  0  0  0  0
  4 20  1  0  0  0  0
  5  6  1  0  0  0  0
  5 21  1  0  0  0  0
  5 22  1  0  0  0  0
  6  7  1  0  0  0  0
  6 23  1  0  0  0  0
  6 24  1  0  0  0  0
  7  8  1  0  0  0  0
  7 16  1  0  0  0  0
  8  9  1  0  0  0  0
  8 25  1  0  0  0  0
  8 26  1  0  0  0  0
  9 15  2  0  0  0  0
  9 10  1  0  0  0  0
 10 11  2  0  0  0  0
 10 27  1  0  0  0  0
 11 12  1  0  0  0  0
 11 28  1  0  0  0  0
 12 13  1  0  0  0  0
 12 14  2  0  0  0  0
 14 15  1  0  0  0  0
 14 29  1  0  0  0  0
 15 30  1  0  0  0  0
 16 17  1  0  0  0  0
 16 31  1  0  0  0  0
 16 32  1  0  0  0  0
 17 33  1  0  0  0  0
 17 34  1  0  0  0  0
M  END
$$$$
