ZINC000000005331      none
 OpenBabel11202420153D

 28 30  0  0  0  0  0  0  0  0999 V2000
   33.8280   38.5624   55.8365 C   0  0  0  0  0  0  0  0  0  0  0  0
   33.5214   39.5759   56.7343 C   0  0  0  0  0  0  0  0  0  0  0  0
   32.9790   39.2829   57.9662 C   0  0  0  0  0  0  0  0  0  0  0  0
   32.7356   37.9587   58.3167 C   0  0  0  0  0  0  0  0  0  0  0  0
   33.0484   36.9355   57.4035 C   0  0  0  0  0  0  0  0  0  0  0  0
   33.5971   37.2553   56.1600 C   0  0  0  0  0  0  0  0  0  0  0  0
   32.6798   35.6795   58.0611 C   0  0  0  0  0  0  0  0  0  0  0  0
   32.1966   35.9977   59.2724 C   0  0  0  0  0  0  0  0  0  0  0  0
   32.2167   37.3556   59.4404 N   0  0  0  0  0  0  0  0  0  0  0  0
   31.7599   38.0620   60.6399 C   0  0  0  0  0  0  0  0  0  0  0  0
   31.2601   37.0630   61.6515 C   0  0  0  0  0  0  0  0  0  0  0  0
   29.9290   36.6756   61.6684 C   0  0  0  0  0  0  0  0  0  0  0  0
   29.5077   35.7539   62.6082 C   0  0  0  0  0  0  0  0  0  0  0  0
   30.3533   35.2521   63.4870 N   0  0  0  0  0  0  0  0  0  0  0  0
   31.6249   35.6010   63.5033 C   0  0  0  0  0  0  0  0  0  0  0  0
   32.1192   36.5138   62.5909 C   0  0  0  0  0  0  0  0  0  0  0  0
   34.2521   38.8092   54.8744 H   0  0  0  0  0  0  0  0  0  0  0  0
   33.7097   40.6044   56.4641 H   0  0  0  0  0  0  0  0  0  0  0  0
   32.7439   40.0784   58.6577 H   0  0  0  0  0  0  0  0  0  0  0  0
   33.8378   36.4721   55.4563 H   0  0  0  0  0  0  0  0  0  0  0  0
   32.7822   34.6855   57.6512 H   0  0  0  0  0  0  0  0  0  0  0  0
   31.8419   35.2876   60.0046 H   0  0  0  0  0  0  0  0  0  0  0  0
   30.9529   38.7448   60.3741 H   0  0  0  0  0  0  0  0  0  0  0  0
   32.5887   38.6273   61.0663 H   0  0  0  0  0  0  0  0  0  0  0  0
   29.2306   37.0863   60.9542 H   0  0  0  0  0  0  0  0  0  0  0  0
   28.4732   35.4444   62.6260 H   0  0  0  0  0  0  0  0  0  0  0  0
   32.2876   35.1686   64.2384 H   0  0  0  0  0  0  0  0  0  0  0  0
   33.1615   36.7961   62.6097 H   0  0  0  0  0  0  0  0  0  0  0  0
  1  6  2  0  0  0  0
  1  2  1  0  0  0  0
  1 17  1  0  0  0  0
  2  3  2  0  0  0  0
  2 18  1  0  0  0  0
  3  4  1  0  0  0  0
  3 19  1  0  0  0  0
  4  9  1  0  0  0  0
  4  5  2  0  0  0  0
  5  6  1  0  0  0  0
  5  7  1  0  0  0  0
  6 20  1  0  0  0  0
  7  8  2  0  0  0  0
  7 21  1  0  0  0  0
  8  9  1  0  0  0  0
  8 22  1  0  0  0  0
  9 10  1  0  0  0  0
 10 11  1  0  0  0  0
 10 23  1  0  0  0  0
 10 24  1  0  0  0  0
 11 16  2  0  0  0  0
 11 12  1  0  0  0  0
 12 13  2  0  0  0  0
 12 25  1  0  0  0  0
 13 14  1  0  0  0  0
 13 26  1  0  0  0  0
 14 15  2  0  0  0  0
 15 16  1  0  0  0  0
 15 27  1  0  0  0  0
 16 28  1  0  0  0  0
M  END
$$$$
