ZINC000000035056      none
 OpenBabel11202420153D

 43 45  0  0  1  0  0  0  0  0999 V2000
   29.7556   37.1340   61.4471 C   0  0  0  0  0  0  0  0  0  0  0  0
   30.6439   38.0669   62.2727 C   0  0  0  0  0  0  0  0  0  0  0  0
   30.8180   37.5121   63.6173 N   0  0  0  0  0  0  0  0  0  0  0  0
   31.4314   36.1931   63.7918 C   0  0  0  0  0  0  0  0  0  0  0  0
   32.8472   36.2085   63.2122 C   0  0  0  0  0  0  0  0  0  0  0  0
   30.3991   38.2407   64.7330 C   0  0  0  0  0  0  0  0  0  0  0  0
   29.3251   39.1155   64.6297 C   0  0  0  0  0  0  0  0  0  0  0  0
   28.9131   39.8341   65.7348 C   0  0  0  0  0  0  0  0  0  0  0  0
   29.5685   39.6834   66.9431 C   0  0  0  0  0  0  0  0  0  0  0  0
   29.1162   40.4691   68.1469 C   0  0  2  0  0  0  0  0  0  0  0  0
   29.9356   41.0970   68.4968 H   0  0  0  0  0  0  0  0  0  0  0  0
   28.7267   39.5438   69.2107 N   0  0  0  0  0  0  0  0  0  0  0  0
   27.4627   39.0823   69.3080 C   0  0  0  0  0  0  0  0  0  0  0  0
   27.1714   38.2617   70.1568 O   0  0  0  0  0  0  0  0  0  0  0  0
   26.4387   39.5835   68.3737 C   0  0  0  0  0  0  0  0  0  0  0  0
   25.2005   38.9608   68.2397 C   0  0  0  0  0  0  0  0  0  0  0  0
   24.2768   39.4685   67.3495 C   0  0  0  0  0  0  0  0  0  0  0  0
   24.5691   40.5961   66.5982 C   0  0  0  0  0  0  0  0  0  0  0  0
   25.7926   41.2262   66.7239 C   0  0  0  0  0  0  0  0  0  0  0  0
   26.7328   40.7259   67.6080 C   0  0  0  0  0  0  0  0  0  0  0  0
   27.9799   41.3186   67.7698 N   0  0  0  0  0  0  0  0  0  0  0  0
   30.6417   38.8176   67.0479 C   0  0  0  0  0  0  0  0  0  0  0  0
   31.0553   38.0917   65.9482 C   0  0  0  0  0  0  0  0  0  0  0  0
   30.2253   36.1527   61.3772 H   0  0  0  0  0  0  0  0  0  0  0  0
   28.7828   37.0378   61.9291 H   0  0  0  0  0  0  0  0  0  0  0  0
   29.6262   37.5467   60.4465 H   0  0  0  0  0  0  0  0  0  0  0  0
   30.1744   39.0480   62.3424 H   0  0  0  0  0  0  0  0  0  0  0  0
   31.6168   38.1632   61.7906 H   0  0  0  0  0  0  0  0  0  0  0  0
   31.4760   35.9508   64.8536 H   0  0  0  0  0  0  0  0  0  0  0  0
   30.8343   35.4433   63.2727 H   0  0  0  0  0  0  0  0  0  0  0  0
   33.4443   36.9583   63.7312 H   0  0  0  0  0  0  0  0  0  0  0  0
   33.3035   35.2271   63.3419 H   0  0  0  0  0  0  0  0  0  0  0  0
   32.8025   36.4508   62.1505 H   0  0  0  0  0  0  0  0  0  0  0  0
   28.8130   39.2339   63.6862 H   0  0  0  0  0  0  0  0  0  0  0  0
   28.0779   40.5142   65.6554 H   0  0  0  0  0  0  0  0  0  0  0  0
   29.3894   39.2569   69.8584 H   0  0  0  0  0  0  0  0  0  0  0  0
   24.9662   38.0844   68.8259 H   0  0  0  0  0  0  0  0  0  0  0  0
   23.3167   38.9861   67.2403 H   0  0  0  0  0  0  0  0  0  0  0  0
   23.8345   40.9857   65.9091 H   0  0  0  0  0  0  0  0  0  0  0  0
   26.0139   42.1041   66.1353 H   0  0  0  0  0  0  0  0  0  0  0  0
   28.0968   42.2722   67.6361 H   0  0  0  0  0  0  0  0  0  0  0  0
   31.1544   38.7057   67.9919 H   0  0  0  0  0  0  0  0  0  0  0  0
   31.8906   37.4123   66.0318 H   0  0  0  0  0  0  0  0  0  0  0  0
  1  2  1  0  0  0  0
  1 24  1  0  0  0  0
  1 25  1  0  0  0  0
  1 26  1  0  0  0  0
  2  3  1  0  0  0  0
  2 27  1  0  0  0  0
  2 28  1  0  0  0  0
  3  4  1  0  0  0  0
  3  6  1  0  0  0  0
  4  5  1  0  0  0  0
  4 29  1  0  0  0  0
  4 30  1  0  0  0  0
  5 31  1  0  0  0  0
  5 32  1  0  0  0  0
  5 33  1  0  0  0  0
  6 23  2  0  0  0  0
  6  7  1  0  0  0  0
  7  8  2  0  0  0  0
  7 34  1  0  0  0  0
  8  9  1  0  0  0  0
  8 35  1  0  0  0  0
  9 10  1  0  0  0  0
  9 22  2  0  0  0  0
 10 11  1  1  0  0  0
 10 21  1  0  0  0  0
 10 12  1  0  0  0  0
 12 13  1  0  0  0  0
 12 36  1  0  0  0  0
 13 14  2  0  0  0  0
 13 15  1  0  0  0  0
 15 20  2  0  0  0  0
 15 16  1  0  0  0  0
 16 17  2  0  0  0  0
 16 37  1  0  0  0  0
 17 18  1  0  0  0  0
 17 38  1  0  0  0  0
 18 19  2  0  0  0  0
 18 39  1  0  0  0  0
 19 20  1  0  0  0  0
 19 40  1  0  0  0  0
 20 21  1  0  0  0  0
 21 41  1  0  0  0  0
 22 23  1  0  0  0  0
 22 42  1  0  0  0  0
 23 43  1  0  0  0  0
M  END
$$$$
