ZINC000000001436      none
 OpenBabel11202420153D

 29 30  0  0  0  0  0  0  0  0999 V2000
   30.1913   38.6390   64.7460 C   0  0  0  0  0  0  0  0  0  0  0  0
   30.3350   37.4507   63.9014 N   0  0  0  0  0  0  0  0  0  0  0  0
   30.1921   36.0481   64.3253 C   0  0  0  0  0  0  0  0  0  0  0  0
   30.4413   35.2520   63.0613 C   0  0  0  0  0  0  0  0  0  0  0  0
   30.4241   34.0452   62.9459 O   0  0  0  0  0  0  0  0  0  0  0  0
   30.6865   36.1536   62.0910 N   0  0  0  0  0  0  0  0  0  0  0  0
   30.6263   37.4284   62.5717 C   0  0  0  0  0  0  0  0  0  0  0  0
   30.8255   38.5086   61.8374 N   0  0  0  0  0  0  0  0  0  0  0  0
   31.2351   38.3890   60.5657 C   0  0  0  0  0  0  0  0  0  0  0  0
   30.5523   37.7815   59.7606 O   0  0  0  0  0  0  0  0  0  0  0  0
   32.4022   38.9409   60.1786 N   0  0  0  0  0  0  0  0  0  0  0  0
   32.8291   38.8162   58.8524 C   0  0  0  0  0  0  0  0  0  0  0  0
   33.0336   39.9509   58.0775 C   0  0  0  0  0  0  0  0  0  0  0  0
   33.4594   39.8253   56.7700 C   0  0  0  0  0  0  0  0  0  0  0  0
   33.6732   38.5712   56.2279 C   0  0  0  0  0  0  0  0  0  0  0  0
   33.4655   37.4383   56.9951 C   0  0  0  0  0  0  0  0  0  0  0  0
   33.7351   35.8659   56.3107 Cl  0  0  0  0  0  0  0  0  0  0  0  0
   33.0439   37.5580   58.3063 C   0  0  0  0  0  0  0  0  0  0  0  0
   31.1588   38.8981   65.1761 H   0  0  0  0  0  0  0  0  0  0  0  0
   29.8270   39.4711   64.1434 H   0  0  0  0  0  0  0  0  0  0  0  0
   29.4814   38.4320   65.5467 H   0  0  0  0  0  0  0  0  0  0  0  0
   30.9342   35.8012   65.0844 H   0  0  0  0  0  0  0  0  0  0  0  0
   29.1853   35.8634   64.7002 H   0  0  0  0  0  0  0  0  0  0  0  0
   30.8805   35.9252   61.1685 H   0  0  0  0  0  0  0  0  0  0  0  0
   32.9460   39.4248   60.8198 H   0  0  0  0  0  0  0  0  0  0  0  0
   32.8629   40.9307   58.4985 H   0  0  0  0  0  0  0  0  0  0  0  0
   33.6219   40.7075   56.1686 H   0  0  0  0  0  0  0  0  0  0  0  0
   34.0025   38.4756   55.2038 H   0  0  0  0  0  0  0  0  0  0  0  0
   32.8823   36.6739   58.9050 H   0  0  0  0  0  0  0  0  0  0  0  0
  1  2  1  0  0  0  0
  1 19  1  0  0  0  0
  1 20  1  0  0  0  0
  1 21  1  0  0  0  0
  2  7  1  0  0  0  0
  2  3  1  0  0  0  0
  3  4  1  0  0  0  0
  3 22  1  0  0  0  0
  3 23  1  0  0  0  0
  4  5  2  0  0  0  0
  4  6  1  0  0  0  0
  6  7  1  0  0  0  0
  6 24  1  0  0  0  0
  7  8  2  0  0  0  0
  8  9  1  0  0  0  0
  9 10  2  0  0  0  0
  9 11  1  0  0  0  0
 11 12  1  0  0  0  0
 11 25  1  0  0  0  0
 12 18  2  0  0  0  0
 12 13  1  0  0  0  0
 13 14  2  0  0  0  0
 13 26  1  0  0  0  0
 14 15  1  0  0  0  0
 14 27  1  0  0  0  0
 15 16  2  0  0  0  0
 15 28  1  0  0  0  0
 16 17  1  0  0  0  0
 16 18  1  0  0  0  0
 18 29  1  0  0  0  0
M  END
$$$$
