ZINC000000050012      none
 OpenBabel11202420153D

 39 41  0  0  0  0  0  0  0  0999 V2000
   26.9082   32.8288   65.2099 C   0  0  0  0  0  0  0  0  0  0  0  0
   27.9978   33.7160   65.4699 O   0  0  0  0  0  0  0  0  0  0  0  0
   29.1092   33.5460   64.5879 C   0  0  0  0  0  0  0  0  0  0  0  0
   30.1937   34.5271   64.9512 C   0  0  0  0  0  0  0  0  0  0  0  0
   30.5371   34.6979   66.2807 C   0  0  0  0  0  0  0  0  0  0  0  0
   31.5286   35.6022   66.6180 C   0  0  0  0  0  0  0  0  0  0  0  0
   31.9220   35.8154   68.0571 C   0  0  0  0  0  0  0  0  0  0  0  0
   32.1613   36.3099   65.5894 C   0  0  0  0  0  0  0  0  0  0  0  0
   33.1976   37.2533   65.8836 C   0  0  0  0  0  0  0  0  0  0  0  0
   34.0198   38.0016   66.1170 N   0  0  0  0  0  0  0  0  0  0  0  0
   31.7606   36.0770   64.2618 C   0  0  0  0  0  0  0  0  0  0  0  0
   32.5382   36.9525   62.9452 S   0  0  0  0  0  0  0  0  0  0  0  0
   31.6402   36.2605   61.5341 C   0  0  0  0  0  0  0  0  0  0  0  0
   32.1520   36.8811   60.2597 C   0  0  0  0  0  0  0  0  0  0  0  0
   32.4278   36.2259   59.1700 N   0  0  0  0  0  0  0  0  0  0  0  0
   32.8642   37.0889   58.2167 C   0  0  0  0  0  0  0  0  0  0  0  0
   33.2856   36.9308   56.8937 C   0  0  0  0  0  0  0  0  0  0  0  0
   33.6762   38.0207   56.1690 C   0  0  0  0  0  0  0  0  0  0  0  0
   33.6593   39.2888   56.7326 C   0  0  0  0  0  0  0  0  0  0  0  0
   33.2469   39.4686   58.0356 C   0  0  0  0  0  0  0  0  0  0  0  0
   32.8473   38.3724   58.7879 C   0  0  0  0  0  0  0  0  0  0  0  0
   32.3873   38.2088   60.0793 N   0  0  0  0  0  0  0  0  0  0  0  0
   32.2575   38.9102   60.7366 H   0  0  0  0  0  0  0  0  0  0  0  0
   30.8013   35.2031   63.9959 N   0  0  0  0  0  0  0  0  0  0  0  0
   26.5419   32.9907   64.1962 H   0  0  0  0  0  0  0  0  0  0  0  0
   27.2465   31.7978   65.3137 H   0  0  0  0  0  0  0  0  0  0  0  0
   26.1052   33.0212   65.9214 H   0  0  0  0  0  0  0  0  0  0  0  0
   28.7885   33.7226   63.5612 H   0  0  0  0  0  0  0  0  0  0  0  0
   29.4931   32.5298   64.6788 H   0  0  0  0  0  0  0  0  0  0  0  0
   30.0321   34.1323   67.0498 H   0  0  0  0  0  0  0  0  0  0  0  0
   31.3147   36.6129   68.4854 H   0  0  0  0  0  0  0  0  0  0  0  0
   32.9748   36.0929   68.1086 H   0  0  0  0  0  0  0  0  0  0  0  0
   31.7609   34.8948   68.6180 H   0  0  0  0  0  0  0  0  0  0  0  0
   31.7932   35.1818   61.4998 H   0  0  0  0  0  0  0  0  0  0  0  0
   30.5765   36.4735   61.6404 H   0  0  0  0  0  0  0  0  0  0  0  0
   33.3021   35.9485   56.4450 H   0  0  0  0  0  0  0  0  0  0  0  0
   34.0012   37.8944   55.1468 H   0  0  0  0  0  0  0  0  0  0  0  0
   33.9709   40.1406   56.1462 H   0  0  0  0  0  0  0  0  0  0  0  0
   33.2353   40.4577   58.4694 H   0  0  0  0  0  0  0  0  0  0  0  0
  1  2  1  0  0  0  0
  1 25  1  0  0  0  0
  1 26  1  0  0  0  0
  1 27  1  0  0  0  0
  2  3  1  0  0  0  0
  3  4  1  0  0  0  0
  3 28  1  0  0  0  0
  3 29  1  0  0  0  0
  4 24  2  0  0  0  0
  4  5  1  0  0  0  0
  5  6  2  0  0  0  0
  5 30  1  0  0  0  0
  6  7  1  0  0  0  0
  6  8  1  0  0  0  0
  7 31  1  0  0  0  0
  7 32  1  0  0  0  0
  7 33  1  0  0  0  0
  8  9  1  0  0  0  0
  8 11  2  0  0  0  0
  9 10  3  0  0  0  0
 11 12  1  0  0  0  0
 11 24  1  0  0  0  0
 12 13  1  0  0  0  0
 13 14  1  0  0  0  0
 13 34  1  0  0  0  0
 13 35  1  0  0  0  0
 14 22  1  0  0  0  0
 14 15  2  0  0  0  0
 15 16  1  0  0  0  0
 16 21  2  0  0  0  0
 16 17  1  0  0  0  0
 17 18  2  0  0  0  0
 17 36  1  0  0  0  0
 18 19  1  0  0  0  0
 18 37  1  0  0  0  0
 19 20  2  0  0  0  0
 19 38  1  0  0  0  0
 20 21  1  0  0  0  0
 20 39  1  0  0  0  0
 21 22  1  0  0  0  0
 22 23  1  0  0  0  0
M  END
$$$$
