ZINC000000030242      none
 OpenBabel11202420163D

 43 46  0  0  0  0  0  0  0  0999 V2000
   37.2210   44.3576   69.8539 C   0  0  0  0  0  0  0  0  0  0  0  0
   36.6150   44.3527   68.4744 C   0  0  0  0  0  0  0  0  0  0  0  0
   37.0117   45.1336   67.6348 O   0  0  0  0  0  0  0  0  0  0  0  0
   35.5437   43.4035   68.1461 C   0  0  0  0  0  0  0  0  0  0  0  0
   34.5724   43.7420   67.1951 C   0  0  0  0  0  0  0  0  0  0  0  0
   33.5744   42.8526   66.8916 C   0  0  0  0  0  0  0  0  0  0  0  0
   33.5253   41.6147   67.5267 C   0  0  0  0  0  0  0  0  0  0  0  0
   32.5091   40.7142   67.2153 N   0  0  0  0  0  0  0  0  0  0  0  0
   32.8143   39.4996   66.7170 C   0  0  0  0  0  0  0  0  0  0  0  0
   33.9736   39.1907   66.5398 O   0  0  0  0  0  0  0  0  0  0  0  0
   31.7149   38.5254   66.3800 C   0  0  0  0  0  0  0  0  0  0  0  0
   31.7934   38.1761   64.9188 C   0  0  0  0  0  0  0  0  0  0  0  0
   32.7549   37.2795   64.4864 C   0  0  0  0  0  0  0  0  0  0  0  0
   32.8442   36.9469   63.1485 C   0  0  0  0  0  0  0  0  0  0  0  0
   31.9714   37.5100   62.2355 C   0  0  0  0  0  0  0  0  0  0  0  0
   31.0132   38.4079   62.6603 C   0  0  0  0  0  0  0  0  0  0  0  0
   30.9172   38.7410   64.0069 C   0  0  0  0  0  0  0  0  0  0  0  0
   29.9671   39.6206   64.4045 O   0  0  0  0  0  0  0  0  0  0  0  0
   29.5793   39.6629   65.7017 C   0  0  0  0  0  0  0  0  0  0  0  0
   28.3536   40.2338   66.0258 C   0  0  0  0  0  0  0  0  0  0  0  0
   27.9403   40.2866   67.3416 C   0  0  0  0  0  0  0  0  0  0  0  0
   28.7462   39.7714   68.3405 C   0  0  0  0  0  0  0  0  0  0  0  0
   29.9646   39.2036   68.0220 C   0  0  0  0  0  0  0  0  0  0  0  0
   30.3841   39.1477   66.7043 C   0  0  0  0  0  0  0  0  0  0  0  0
   34.4856   41.2764   68.4763 C   0  0  0  0  0  0  0  0  0  0  0  0
   35.4901   42.1574   68.7824 C   0  0  0  0  0  0  0  0  0  0  0  0
   38.0685   43.6727   69.8805 H   0  0  0  0  0  0  0  0  0  0  0  0
   37.5592   45.3643   70.0989 H   0  0  0  0  0  0  0  0  0  0  0  0
   36.4734   44.0388   70.5803 H   0  0  0  0  0  0  0  0  0  0  0  0
   34.6094   44.7023   66.7021 H   0  0  0  0  0  0  0  0  0  0  0  0
   32.8249   43.1126   66.1588 H   0  0  0  0  0  0  0  0  0  0  0  0
   31.5819   40.9612   67.3571 H   0  0  0  0  0  0  0  0  0  0  0  0
   31.8426   37.6201   66.9735 H   0  0  0  0  0  0  0  0  0  0  0  0
   33.4380   36.8386   65.1973 H   0  0  0  0  0  0  0  0  0  0  0  0
   33.5964   36.2471   62.8154 H   0  0  0  0  0  0  0  0  0  0  0  0
   32.0420   37.2500   61.1896 H   0  0  0  0  0  0  0  0  0  0  0  0
   30.3340   38.8495   61.9460 H   0  0  0  0  0  0  0  0  0  0  0  0
   27.7235   40.6363   65.2464 H   0  0  0  0  0  0  0  0  0  0  0  0
   26.9878   40.7301   67.5911 H   0  0  0  0  0  0  0  0  0  0  0  0
   28.4226   39.8128   69.3700 H   0  0  0  0  0  0  0  0  0  0  0  0
   30.5918   38.8016   68.8039 H   0  0  0  0  0  0  0  0  0  0  0  0
   34.4412   40.3165   68.9696 H   0  0  0  0  0  0  0  0  0  0  0  0
   36.2370   41.8924   69.5161 H   0  0  0  0  0  0  0  0  0  0  0  0
  1  2  1  0  0  0  0
  1 27  1  0  0  0  0
  1 28  1  0  0  0  0
  1 29  1  0  0  0  0
  2  3  2  0  0  0  0
  2  4  1  0  0  0  0
  4 26  2  0  0  0  0
  4  5  1  0  0  0  0
  5  6  2  0  0  0  0
  5 30  1  0  0  0  0
  6  7  1  0  0  0  0
  6 31  1  0  0  0  0
  7  8  1  0  0  0  0
  7 25  2  0  0  0  0
  8  9  1  0  0  0  0
  8 32  1  0  0  0  0
  9 10  2  0  0  0  0
  9 11  1  0  0  0  0
 11 24  1  0  0  0  0
 11 12  1  0  0  0  0
 11 33  1  0  0  0  0
 12 17  2  0  0  0  0
 12 13  1  0  0  0  0
 13 14  2  0  0  0  0
 13 34  1  0  0  0  0
 14 15  1  0  0  0  0
 14 35  1  0  0  0  0
 15 16  2  0  0  0  0
 15 36  1  0  0  0  0
 16 17  1  0  0  0  0
 16 37  1  0  0  0  0
 17 18  1  0  0  0  0
 18 19  1  0  0  0  0
 19 24  2  0  0  0  0
 19 20  1  0  0  0  0
 20 21  2  0  0  0  0
 20 38  1  0  0  0  0
 21 22  1  0  0  0  0
 21 39  1  0  0  0  0
 22 23  2  0  0  0  0
 22 40  1  0  0  0  0
 23 24  1  0  0  0  0
 23 41  1  0  0  0  0
 25 26  1  0  0  0  0
 25 42  1  0  0  0  0
 26 43  1  0  0  0  0
M  END
$$$$
