ZINC000000045091      none
 OpenBabel11202420153D

 44 47  0  0  0  0  0  0  0  0999 V2000
   33.4983   40.3932   58.8570 C   0  0  0  0  0  0  0  0  0  0  0  0
   33.4501   39.0948   58.0937 C   0  0  0  0  0  0  0  0  0  0  0  0
   33.0259   37.9409   58.7321 C   0  0  0  0  0  0  0  0  0  0  0  0
   32.9761   36.7411   58.0450 C   0  0  0  0  0  0  0  0  0  0  0  0
   32.5606   35.6106   58.6702 O   0  0  0  0  0  0  0  0  0  0  0  0
   31.2358   35.6152   59.2060 C   0  0  0  0  0  0  0  0  0  0  0  0
   31.2949   35.3827   60.6937 C   0  0  0  0  0  0  0  0  0  0  0  0
   30.5286   36.1558   61.5454 C   0  0  0  0  0  0  0  0  0  0  0  0
   30.5822   35.9427   62.9101 C   0  0  0  0  0  0  0  0  0  0  0  0
   31.4028   34.9560   63.4248 C   0  0  0  0  0  0  0  0  0  0  0  0
   32.1703   34.1821   62.5754 C   0  0  0  0  0  0  0  0  0  0  0  0
   32.1126   34.3908   61.2076 C   0  0  0  0  0  0  0  0  0  0  0  0
   32.8579   33.6307   60.3758 F   0  0  0  0  0  0  0  0  0  0  0  0
   33.3585   36.7055   56.6934 C   0  0  0  0  0  0  0  0  0  0  0  0
   33.3174   35.4481   55.9369 C   0  0  0  0  0  0  0  0  0  0  0  0
   33.6901   35.4694   54.6394 C   0  0  0  0  0  0  0  0  0  0  0  0
   34.1154   36.6906   54.0600 C   0  0  0  0  0  0  0  0  0  0  0  0
   34.4569   36.7007   52.8909 O   0  0  0  0  0  0  0  0  0  0  0  0
   34.1546   37.8342   54.7564 O   0  0  0  0  0  0  0  0  0  0  0  0
   33.7878   37.8786   56.0550 C   0  0  0  0  0  0  0  0  0  0  0  0
   33.8287   39.0694   56.7664 C   0  0  0  0  0  0  0  0  0  0  0  0
   33.6730   34.2414   53.7682 C   0  0  0  0  0  0  0  0  0  0  0  0
   33.6224   32.9760   54.6222 C   0  0  0  0  0  0  0  0  0  0  0  0
   32.4777   33.1209   55.6324 C   0  0  0  0  0  0  0  0  0  0  0  0
   32.8646   34.2000   56.6425 C   0  0  0  0  0  0  0  0  0  0  0  0
   32.5416   40.9068   58.7611 H   0  0  0  0  0  0  0  0  0  0  0  0
   33.6971   40.1891   59.9091 H   0  0  0  0  0  0  0  0  0  0  0  0
   34.2910   41.0230   58.4531 H   0  0  0  0  0  0  0  0  0  0  0  0
   32.7331   37.9779   59.7710 H   0  0  0  0  0  0  0  0  0  0  0  0
   30.7668   36.5788   59.0071 H   0  0  0  0  0  0  0  0  0  0  0  0
   30.6516   34.8231   58.7374 H   0  0  0  0  0  0  0  0  0  0  0  0
   29.8873   36.9268   61.1444 H   0  0  0  0  0  0  0  0  0  0  0  0
   29.9831   36.5473   63.5747 H   0  0  0  0  0  0  0  0  0  0  0  0
   31.4442   34.7904   64.4912 H   0  0  0  0  0  0  0  0  0  0  0  0
   32.8114   33.4117   62.9779 H   0  0  0  0  0  0  0  0  0  0  0  0
   34.1574   39.9768   56.2815 H   0  0  0  0  0  0  0  0  0  0  0  0
   34.5732   34.2243   53.1538 H   0  0  0  0  0  0  0  0  0  0  0  0
   32.7968   34.2727   53.1205 H   0  0  0  0  0  0  0  0  0  0  0  0
   33.4426   32.1101   53.9852 H   0  0  0  0  0  0  0  0  0  0  0  0
   34.5668   32.8529   55.1524 H   0  0  0  0  0  0  0  0  0  0  0  0
   31.5646   33.4131   55.1140 H   0  0  0  0  0  0  0  0  0  0  0  0
   32.3204   32.1735   56.1481 H   0  0  0  0  0  0  0  0  0  0  0  0
   32.0023   34.4333   57.2671 H   0  0  0  0  0  0  0  0  0  0  0  0
   33.6737   33.8295   57.2719 H   0  0  0  0  0  0  0  0  0  0  0  0
  1  2  1  0  0  0  0
  1 26  1  0  0  0  0
  1 27  1  0  0  0  0
  1 28  1  0  0  0  0
  2 21  2  0  0  0  0
  2  3  1  0  0  0  0
  3  4  2  0  0  0  0
  3 29  1  0  0  0  0
  4  5  1  0  0  0  0
  4 14  1  0  0  0  0
  5  6  1  0  0  0  0
  6  7  1  0  0  0  0
  6 30  1  0  0  0  0
  6 31  1  0  0  0  0
  7 12  2  0  0  0  0
  7  8  1  0  0  0  0
  8  9  2  0  0  0  0
  8 32  1  0  0  0  0
  9 10  1  0  0  0  0
  9 33  1  0  0  0  0
 10 11  2  0  0  0  0
 10 34  1  0  0  0  0
 11 12  1  0  0  0  0
 11 35  1  0  0  0  0
 12 13  1  0  0  0  0
 14 20  2  0  0  0  0
 14 15  1  0  0  0  0
 15 25  1  0  0  0  0
 15 16  2  0  0  0  0
 16 17  1  0  0  0  0
 16 22  1  0  0  0  0
 17 18  2  0  0  0  0
 17 19  1  0  0  0  0
 19 20  1  0  0  0  0
 20 21  1  0  0  0  0
 21 36  1  0  0  0  0
 22 23  1  0  0  0  0
 22 37  1  0  0  0  0
 22 38  1  0  0  0  0
 23 24  1  0  0  0  0
 23 39  1  0  0  0  0
 23 40  1  0  0  0  0
 24 25  1  0  0  0  0
 24 41  1  0  0  0  0
 24 42  1  0  0  0  0
 25 43  1  0  0  0  0
 25 44  1  0  0  0  0
M  END
$$$$
