ZINC000000035515      none
 OpenBabel11202420153D

 48 51  0  0  0  0  0  0  0  0999 V2000
   35.1405   41.0436   69.0036 C   0  0  0  0  0  0  0  0  0  0  0  0
   33.8268   40.3534   68.7419 C   0  0  0  0  0  0  0  0  0  0  0  0
   32.7513   40.5759   69.5850 C   0  0  0  0  0  0  0  0  0  0  0  0
   31.5410   39.9540   69.3487 C   0  0  0  0  0  0  0  0  0  0  0  0
   30.3740   40.1981   70.2706 C   0  0  0  0  0  0  0  0  0  0  0  0
   31.4062   39.0931   68.2702 C   0  0  0  0  0  0  0  0  0  0  0  0
   32.4919   38.8658   67.4222 C   0  0  0  0  0  0  0  0  0  0  0  0
   33.7008   39.5012   67.6626 C   0  0  0  0  0  0  0  0  0  0  0  0
   32.0589   37.9734   66.4442 N   0  0  0  0  0  0  0  0  0  0  0  0
   32.8678   37.4545   65.3385 C   0  0  0  0  0  0  0  0  0  0  0  0
   32.0687   37.5106   64.0620 C   0  0  0  0  0  0  0  0  0  0  0  0
   32.0665   36.4300   63.1999 C   0  0  0  0  0  0  0  0  0  0  0  0
   31.3297   36.4796   62.0313 C   0  0  0  0  0  0  0  0  0  0  0  0
   30.6035   37.6138   61.7198 C   0  0  0  0  0  0  0  0  0  0  0  0
   30.6098   38.6964   62.5794 C   0  0  0  0  0  0  0  0  0  0  0  0
   31.3424   38.6448   63.7505 C   0  0  0  0  0  0  0  0  0  0  0  0
   30.7720   37.6646   66.6917 C   0  0  0  0  0  0  0  0  0  0  0  0
   30.0934   36.9043   66.0268 O   0  0  0  0  0  0  0  0  0  0  0  0
   30.3501   38.3243   67.7869 N   0  0  0  0  0  0  0  0  0  0  0  0
   29.0085   38.2471   68.3704 C   0  0  0  0  0  0  0  0  0  0  0  0
   28.1313   39.3067   67.7548 C   0  0  0  0  0  0  0  0  0  0  0  0
   27.3089   40.0752   68.5573 C   0  0  0  0  0  0  0  0  0  0  0  0
   26.5079   41.0504   67.9931 C   0  0  0  0  0  0  0  0  0  0  0  0
   26.5214   41.2500   66.6254 C   0  0  0  0  0  0  0  0  0  0  0  0
   27.3399   40.4779   65.8223 C   0  0  0  0  0  0  0  0  0  0  0  0
   28.1449   39.5063   66.3870 C   0  0  0  0  0  0  0  0  0  0  0  0
   35.1601   41.9987   68.4788 H   0  0  0  0  0  0  0  0  0  0  0  0
   35.2542   41.2148   70.0741 H   0  0  0  0  0  0  0  0  0  0  0  0
   35.9577   40.4164   68.6472 H   0  0  0  0  0  0  0  0  0  0  0  0
   32.8573   41.2439   70.4268 H   0  0  0  0  0  0  0  0  0  0  0  0
   30.3146   39.3926   71.0025 H   0  0  0  0  0  0  0  0  0  0  0  0
   30.5111   41.1485   70.7865 H   0  0  0  0  0  0  0  0  0  0  0  0
   29.4524   40.2296   69.6895 H   0  0  0  0  0  0  0  0  0  0  0  0
   34.5419   39.3297   67.0071 H   0  0  0  0  0  0  0  0  0  0  0  0
   33.7675   38.0604   65.2309 H   0  0  0  0  0  0  0  0  0  0  0  0
   33.1480   36.4219   65.5466 H   0  0  0  0  0  0  0  0  0  0  0  0
   32.6375   35.5456   63.4412 H   0  0  0  0  0  0  0  0  0  0  0  0
   31.3251   35.6340   61.3596 H   0  0  0  0  0  0  0  0  0  0  0  0
   30.0313   37.6543   60.8047 H   0  0  0  0  0  0  0  0  0  0  0  0
   30.0427   39.5827   62.3359 H   0  0  0  0  0  0  0  0  0  0  0  0
   31.3478   39.4907   64.4219 H   0  0  0  0  0  0  0  0  0  0  0  0
   28.5827   37.2633   68.1733 H   0  0  0  0  0  0  0  0  0  0  0  0
   29.0707   38.4072   69.4468 H   0  0  0  0  0  0  0  0  0  0  0  0
   27.2951   39.9163   69.6255 H   0  0  0  0  0  0  0  0  0  0  0  0
   25.8681   41.6534   68.6206 H   0  0  0  0  0  0  0  0  0  0  0  0
   25.8922   42.0089   66.1842 H   0  0  0  0  0  0  0  0  0  0  0  0
   27.3502   40.6337   64.7536 H   0  0  0  0  0  0  0  0  0  0  0  0
   28.7840   38.9028   65.7595 H   0  0  0  0  0  0  0  0  0  0  0  0
  1  2  1  0  0  0  0
  1 27  1  0  0  0  0
  1 28  1  0  0  0  0
  1 29  1  0  0  0  0
  2  8  2  0  0  0  0
  2  3  1  0  0  0  0
  3  4  2  0  0  0  0
  3 30  1  0  0  0  0
  4  5  1  0  0  0  0
  4  6  1  0  0  0  0
  5 31  1  0  0  0  0
  5 32  1  0  0  0  0
  5 33  1  0  0  0  0
  6 19  1  0  0  0  0
  6  7  2  0  0  0  0
  7  8  1  0  0  0  0
  7  9  1  0  0  0  0
  8 34  1  0  0  0  0
  9 10  1  0  0  0  0
  9 17  1  0  0  0  0
 10 11  1  0  0  0  0
 10 35  1  0  0  0  0
 10 36  1  0  0  0  0
 11 16  2  0  0  0  0
 11 12  1  0  0  0  0
 12 13  2  0  0  0  0
 12 37  1  0  0  0  0
 13 14  1  0  0  0  0
 13 38  1  0  0  0  0
 14 15  2  0  0  0  0
 14 39  1  0  0  0  0
 15 16  1  0  0  0  0
 15 40  1  0  0  0  0
 16 41  1  0  0  0  0
 17 18  2  0  0  0  0
 17 19  1  0  0  0  0
 19 20  1  0  0  0  0
 20 21  1  0  0  0  0
 20 42  1  0  0  0  0
 20 43  1  0  0  0  0
 21 26  2  0  0  0  0
 21 22  1  0  0  0  0
 22 23  2  0  0  0  0
 22 44  1  0  0  0  0
 23 24  1  0  0  0  0
 23 45  1  0  0  0  0
 24 25  2  0  0  0  0
 24 46  1  0  0  0  0
 25 26  1  0  0  0  0
 25 47  1  0  0  0  0
 26 48  1  0  0  0  0
M  END
$$$$
