ZINC000000023696      none
 OpenBabel11202420153D

 32 35  0  0  0  0  0  0  0  0999 V2000
   35.5828   39.7286   51.3639 F   0  0  0  0  0  0  0  0  0  0  0  0
   35.1147   39.3226   52.5644 C   0  0  0  0  0  0  0  0  0  0  0  0
   34.9692   40.2377   53.5943 C   0  0  0  0  0  0  0  0  0  0  0  0
   34.4914   39.8274   54.8221 C   0  0  0  0  0  0  0  0  0  0  0  0
   34.1552   38.4902   55.0252 C   0  0  0  0  0  0  0  0  0  0  0  0
   33.6417   38.0442   56.3438 C   0  0  0  0  0  0  0  0  0  0  0  0
   33.2798   36.7797   56.6711 C   0  0  0  0  0  0  0  0  0  0  0  0
   32.8549   36.8102   57.9921 N   0  0  0  0  0  0  0  0  0  0  0  0
   32.3755   35.9269   58.9438 C   0  0  0  0  0  0  0  0  0  0  0  0
   32.1073   36.4675   60.1211 C   0  0  0  0  0  0  0  0  0  0  0  0
   32.4665   38.1884   60.0952 S   0  0  0  0  0  0  0  0  0  0  0  0
   32.9842   38.0828   58.4153 C   0  0  0  0  0  0  0  0  0  0  0  0
   33.4531   38.8246   57.4242 N   0  0  0  0  0  0  0  0  0  0  0  0
   31.5681   35.7149   61.3210 C   0  0  0  0  0  0  0  0  0  0  0  0
   31.0099   34.3692   60.8495 C   0  0  0  0  0  0  0  0  0  0  0  0
   32.0548   33.6840   59.9632 C   0  0  0  0  0  0  0  0  0  0  0  0
   32.1708   34.4469   58.6427 C   0  0  0  0  0  0  0  0  0  0  0  0
   34.3083   37.5722   53.9879 C   0  0  0  0  0  0  0  0  0  0  0  0
   34.7822   37.9923   52.7620 C   0  0  0  0  0  0  0  0  0  0  0  0
   35.2302   41.2736   53.4361 H   0  0  0  0  0  0  0  0  0  0  0  0
   34.3779   40.5415   55.6243 H   0  0  0  0  0  0  0  0  0  0  0  0
   33.3115   35.9144   56.0256 H   0  0  0  0  0  0  0  0  0  0  0  0
   32.3717   35.5461   62.0378 H   0  0  0  0  0  0  0  0  0  0  0  0
   30.7738   36.2957   61.7899 H   0  0  0  0  0  0  0  0  0  0  0  0
   30.7945   33.7402   61.7132 H   0  0  0  0  0  0  0  0  0  0  0  0
   30.0965   34.5329   60.2775 H   0  0  0  0  0  0  0  0  0  0  0  0
   33.0196   33.6850   60.4704 H   0  0  0  0  0  0  0  0  0  0  0  0
   31.7480   32.6569   59.7659 H   0  0  0  0  0  0  0  0  0  0  0  0
   33.0214   34.0683   58.0760 H   0  0  0  0  0  0  0  0  0  0  0  0
   31.2574   34.3138   58.0629 H   0  0  0  0  0  0  0  0  0  0  0  0
   34.0532   36.5341   54.1423 H   0  0  0  0  0  0  0  0  0  0  0  0
   34.8979   37.2822   51.9565 H   0  0  0  0  0  0  0  0  0  0  0  0
  1  2  1  0  0  0  0
  2 19  2  0  0  0  0
  2  3  1  0  0  0  0
  3  4  2  0  0  0  0
  3 20  1  0  0  0  0
  4  5  1  0  0  0  0
  4 21  1  0  0  0  0
  5  6  1  0  0  0  0
  5 18  2  0  0  0  0
  6 13  1  0  0  0  0
  6  7  2  0  0  0  0
  7  8  1  0  0  0  0
  7 22  1  0  0  0  0
  8 12  1  0  0  0  0
  8  9  1  0  0  0  0
  9 17  1  0  0  0  0
  9 10  2  0  0  0  0
 10 11  1  0  0  0  0
 10 14  1  0  0  0  0
 11 12  1  0  0  0  0
 12 13  2  0  0  0  0
 14 15  1  0  0  0  0
 14 23  1  0  0  0  0
 14 24  1  0  0  0  0
 15 16  1  0  0  0  0
 15 25  1  0  0  0  0
 15 26  1  0  0  0  0
 16 17  1  0  0  0  0
 16 27  1  0  0  0  0
 16 28  1  0  0  0  0
 17 29  1  0  0  0  0
 17 30  1  0  0  0  0
 18 19  1  0  0  0  0
 18 31  1  0  0  0  0
 19 32  1  0  0  0  0
M  END
$$$$
