ZINC000000005395      none
 OpenBabel11202420153D

 48 49  0  0  0  0  0  0  0  0999 V2000
   32.1250   38.6086   57.9067 C   0  0  0  0  0  0  0  0  0  0  0  0
   32.3826   37.1202   58.1503 C   0  0  0  0  0  0  0  0  0  0  0  0
   31.8668   36.7377   59.5137 C   0  0  0  0  0  0  0  0  0  0  0  0
   31.2630   37.6872   60.3271 C   0  0  0  0  0  0  0  0  0  0  0  0
   30.8076   37.2948   61.5734 C   0  0  0  0  0  0  0  0  0  0  0  0
   30.1505   38.2903   62.4944 C   0  0  0  0  0  0  0  0  0  0  0  0
   31.1684   38.9200   63.3393 N   0  0  0  0  0  0  0  0  0  0  0  0
   30.8350   39.3623   64.6254 C   0  0  0  0  0  0  0  0  0  0  0  0
   31.8110   39.5678   65.5613 C   0  0  0  0  0  0  0  0  0  0  0  0
   31.4499   40.0116   66.8419 C   0  0  0  0  0  0  0  0  0  0  0  0
   32.5117   40.2441   67.8856 C   0  0  0  0  0  0  0  0  0  0  0  0
   32.7406   38.9543   68.6764 C   0  0  0  0  0  0  0  0  0  0  0  0
   30.1494   40.2313   67.1404 C   0  0  0  0  0  0  0  0  0  0  0  0
   29.7728   40.7080   68.5195 C   0  0  0  0  0  0  0  0  0  0  0  0
   29.1766   40.0222   66.2131 N   0  0  0  0  0  0  0  0  0  0  0  0
   28.2488   40.1812   66.4474 H   0  0  0  0  0  0  0  0  0  0  0  0
   29.4869   39.6018   64.9718 C   0  0  0  0  0  0  0  0  0  0  0  0
   28.6036   39.4228   64.1486 O   0  0  0  0  0  0  0  0  0  0  0  0
   30.9591   35.9697   61.9620 C   0  0  0  0  0  0  0  0  0  0  0  0
   30.5117   35.5711   63.1793 O   0  0  0  0  0  0  0  0  0  0  0  0
   30.6969   34.1958   63.5201 C   0  0  0  0  0  0  0  0  0  0  0  0
   31.5357   35.0932   61.1569 N   0  0  0  0  0  0  0  0  0  0  0  0
   31.9848   35.4385   59.9651 C   0  0  0  0  0  0  0  0  0  0  0  0
   32.6342   34.4015   59.0855 C   0  0  0  0  0  0  0  0  0  0  0  0
   32.4981   38.8852   56.9205 H   0  0  0  0  0  0  0  0  0  0  0  0
   31.0542   38.8054   57.9584 H   0  0  0  0  0  0  0  0  0  0  0  0
   32.6396   39.1955   58.6676 H   0  0  0  0  0  0  0  0  0  0  0  0
   33.4534   36.9234   58.0986 H   0  0  0  0  0  0  0  0  0  0  0  0
   31.8681   36.5332   57.3894 H   0  0  0  0  0  0  0  0  0  0  0  0
   31.1549   38.7095   59.9962 H   0  0  0  0  0  0  0  0  0  0  0  0
   29.4225   37.7779   63.1234 H   0  0  0  0  0  0  0  0  0  0  0  0
   29.6459   39.0544   61.9030 H   0  0  0  0  0  0  0  0  0  0  0  0
   32.0733   39.0303   63.0078 H   0  0  0  0  0  0  0  0  0  0  0  0
   32.8480   39.3911   65.3169 H   0  0  0  0  0  0  0  0  0  0  0  0
   33.4405   40.5416   67.3990 H   0  0  0  0  0  0  0  0  0  0  0  0
   32.1878   41.0335   68.5640 H   0  0  0  0  0  0  0  0  0  0  0  0
   33.5086   39.1226   69.4313 H   0  0  0  0  0  0  0  0  0  0  0  0
   31.8118   38.6568   69.1629 H   0  0  0  0  0  0  0  0  0  0  0  0
   33.0644   38.1650   67.9980 H   0  0  0  0  0  0  0  0  0  0  0  0
   29.7752   41.7978   68.5406 H   0  0  0  0  0  0  0  0  0  0  0  0
   30.4933   40.3290   69.2443 H   0  0  0  0  0  0  0  0  0  0  0  0
   28.7773   40.3419   68.7712 H   0  0  0  0  0  0  0  0  0  0  0  0
   31.7607   33.9583   63.5069 H   0  0  0  0  0  0  0  0  0  0  0  0
   30.2958   34.0112   64.5167 H   0  0  0  0  0  0  0  0  0  0  0  0
   30.1756   33.5688   62.7967 H   0  0  0  0  0  0  0  0  0  0  0  0
   31.8758   33.9262   58.4633 H   0  0  0  0  0  0  0  0  0  0  0  0
   33.3789   34.8795   58.4491 H   0  0  0  0  0  0  0  0  0  0  0  0
   33.1177   33.6484   59.7079 H   0  0  0  0  0  0  0  0  0  0  0  0
  1  2  1  0  0  0  0
  1 25  1  0  0  0  0
  1 26  1  0  0  0  0
  1 27  1  0  0  0  0
  2  3  1  0  0  0  0
  2 28  1  0  0  0  0
  2 29  1  0  0  0  0
  3 23  2  0  0  0  0
  3  4  1  0  0  0  0
  4  5  2  0  0  0  0
  4 30  1  0  0  0  0
  5  6  1  0  0  0  0
  5 19  1  0  0  0  0
  6  7  1  0  0  0  0
  6 31  1  0  0  0  0
  6 32  1  0  0  0  0
  7  8  1  0  0  0  0
  7 33  1  0  0  0  0
  8 17  1  0  0  0  0
  8  9  2  0  0  0  0
  9 10  1  0  0  0  0
  9 34  1  0  0  0  0
 10 11  1  0  0  0  0
 10 13  2  0  0  0  0
 11 12  1  0  0  0  0
 11 35  1  0  0  0  0
 11 36  1  0  0  0  0
 12 37  1  0  0  0  0
 12 38  1  0  0  0  0
 12 39  1  0  0  0  0
 13 14  1  0  0  0  0
 13 15  1  0  0  0  0
 14 40  1  0  0  0  0
 14 41  1  0  0  0  0
 14 42  1  0  0  0  0
 15 16  1  0  0  0  0
 15 17  1  0  0  0  0
 17 18  2  0  0  0  0
 19 20  1  0  0  0  0
 19 22  2  0  0  0  0
 20 21  1  0  0  0  0
 21 43  1  0  0  0  0
 21 44  1  0  0  0  0
 21 45  1  0  0  0  0
 22 23  1  0  0  0  0
 23 24  1  0  0  0  0
 24 46  1  0  0  0  0
 24 47  1  0  0  0  0
 24 48  1  0  0  0  0
M  END
$$$$
