ZINC000000004270      none
 OpenBabel11202420153D

 35 37  0  0  0  0  0  0  0  0999 V2000
   32.6639   35.8180   53.4855 C   0  0  0  0  0  0  0  0  0  0  0  0
   33.8909   35.7688   54.3980 C   0  0  0  0  0  0  0  0  0  0  0  0
   33.4866   36.1315   55.8037 C   0  0  0  0  0  0  0  0  0  0  0  0
   33.5199   37.4746   56.2304 C   0  0  0  0  0  0  0  0  0  0  0  0
   33.9221   38.4443   55.3752 O   0  0  0  0  0  0  0  0  0  0  0  0
   33.9321   39.7841   55.8720 C   0  0  0  0  0  0  0  0  0  0  0  0
   33.1664   37.7890   57.4600 N   0  0  0  0  0  0  0  0  0  0  0  0
   32.7699   36.8432   58.3254 C   0  0  0  0  0  0  0  0  0  0  0  0
   32.3754   36.9149   59.5871 N   0  0  0  0  0  0  0  0  0  0  0  0
   32.0780   35.6791   60.0284 C   0  0  0  0  0  0  0  0  0  0  0  0
   31.5984   35.3345   61.3891 C   0  0  0  0  0  0  0  0  0  0  0  0
   32.3423   35.0227   62.4190 N   0  0  0  0  0  0  0  0  0  0  0  0
   31.6436   34.7973   63.3846 O   0  0  0  0  0  0  0  0  0  0  0  0
   30.3545   34.9371   63.0597 C   0  0  0  0  0  0  0  0  0  0  0  0
   29.1742   34.7401   63.9758 C   0  0  0  0  0  0  0  0  0  0  0  0
   30.3098   35.2778   61.7959 N   0  0  0  0  0  0  0  0  0  0  0  0
   32.2918   34.8002   59.0127 C   0  0  0  0  0  0  0  0  0  0  0  0
   32.7272   35.5278   57.9391 N   0  0  0  0  0  0  0  0  0  0  0  0
   33.0884   35.1722   56.6694 C   0  0  0  0  0  0  0  0  0  0  0  0
   33.0439   33.7285   56.2399 C   0  0  0  0  0  0  0  0  0  0  0  0
   32.2444   36.8241   53.4949 H   0  0  0  0  0  0  0  0  0  0  0  0
   32.9563   35.5557   52.4689 H   0  0  0  0  0  0  0  0  0  0  0  0
   31.9166   35.1095   53.8430 H   0  0  0  0  0  0  0  0  0  0  0  0
   34.6383   36.4772   54.0406 H   0  0  0  0  0  0  0  0  0  0  0  0
   34.3104   34.7627   54.3888 H   0  0  0  0  0  0  0  0  0  0  0  0
   34.6054   39.8497   56.7266 H   0  0  0  0  0  0  0  0  0  0  0  0
   34.2735   40.4598   55.0878 H   0  0  0  0  0  0  0  0  0  0  0  0
   32.9250   40.0648   56.1805 H   0  0  0  0  0  0  0  0  0  0  0  0
   28.8487   33.7009   63.9306 H   0  0  0  0  0  0  0  0  0  0  0  0
   29.4625   34.9865   64.9978 H   0  0  0  0  0  0  0  0  0  0  0  0
   28.3579   35.3906   63.6617 H   0  0  0  0  0  0  0  0  0  0  0  0
   32.1451   33.7308   59.0470 H   0  0  0  0  0  0  0  0  0  0  0  0
   34.0048   33.2577   56.4474 H   0  0  0  0  0  0  0  0  0  0  0  0
   32.2588   33.2098   56.7902 H   0  0  0  0  0  0  0  0  0  0  0  0
   32.8356   33.6734   55.1714 H   0  0  0  0  0  0  0  0  0  0  0  0
  1  2  1  0  0  0  0
  1 21  1  0  0  0  0
  1 22  1  0  0  0  0
  1 23  1  0  0  0  0
  2  3  1  0  0  0  0
  2 24  1  0  0  0  0
  2 25  1  0  0  0  0
  3 19  2  0  0  0  0
  3  4  1  0  0  0  0
  4  5  1  0  0  0  0
  4  7  2  0  0  0  0
  5  6  1  0  0  0  0
  6 26  1  0  0  0  0
  6 27  1  0  0  0  0
  6 28  1  0  0  0  0
  7  8  1  0  0  0  0
  8 18  1  0  0  0  0
  8  9  2  0  0  0  0
  9 10  1  0  0  0  0
 10 11  1  0  0  0  0
 10 17  2  0  0  0  0
 11 16  1  0  0  0  0
 11 12  2  0  0  0  0
 12 13  1  0  0  0  0
 13 14  1  0  0  0  0
 14 15  1  0  0  0  0
 14 16  2  0  0  0  0
 15 29  1  0  0  0  0
 15 30  1  0  0  0  0
 15 31  1  0  0  0  0
 17 18  1  0  0  0  0
 17 32  1  0  0  0  0
 18 19  1  0  0  0  0
 19 20  1  0  0  0  0
 20 33  1  0  0  0  0
 20 34  1  0  0  0  0
 20 35  1  0  0  0  0
M  END
$$$$
