ZINC000000029957      none
 OpenBabel11202420163D

 42 43  0  0  0  0  0  0  0  0999 V2000
   27.8193   31.0978   66.1499 C   0  0  0  0  0  0  0  0  0  0  0  0
   29.2966   30.8831   66.4850 C   0  0  0  0  0  0  0  0  0  0  0  0
   29.8730   32.1194   66.9112 O   0  0  0  0  0  0  0  0  0  0  0  0
   29.8455   33.1490   66.0275 C   0  0  0  0  0  0  0  0  0  0  0  0
   29.7751   34.4578   66.4902 C   0  0  0  0  0  0  0  0  0  0  0  0
   29.7527   35.5056   65.5970 C   0  0  0  0  0  0  0  0  0  0  0  0
   29.7889   35.2511   64.2235 C   0  0  0  0  0  0  0  0  0  0  0  0
   29.7579   36.3709   63.2624 C   0  0  0  0  0  0  0  0  0  0  0  0
   28.6935   36.7865   62.8473 O   0  0  0  0  0  0  0  0  0  0  0  0
   30.9098   36.9326   62.8449 N   0  0  0  0  0  0  0  0  0  0  0  0
   32.1924   36.4317   63.3451 C   0  0  0  0  0  0  0  0  0  0  0  0
   32.5783   37.1951   64.6137 C   0  0  0  0  0  0  0  0  0  0  0  0
   30.8792   38.0440   61.8910 C   0  0  0  0  0  0  0  0  0  0  0  0
   31.6300   37.6559   60.6433 C   0  0  0  0  0  0  0  0  0  0  0  0
   32.2692   38.6243   59.8920 C   0  0  0  0  0  0  0  0  0  0  0  0
   32.9621   38.2676   58.7501 C   0  0  0  0  0  0  0  0  0  0  0  0
   33.0068   36.9439   58.3540 C   0  0  0  0  0  0  0  0  0  0  0  0
   32.3631   35.9763   59.1025 C   0  0  0  0  0  0  0  0  0  0  0  0
   31.6747   36.3322   60.2472 C   0  0  0  0  0  0  0  0  0  0  0  0
   29.8539   33.9336   63.7622 C   0  0  0  0  0  0  0  0  0  0  0  0
   29.8821   32.8917   64.6620 C   0  0  0  0  0  0  0  0  0  0  0  0
   27.2945   31.4574   67.0350 H   0  0  0  0  0  0  0  0  0  0  0  0
   27.7313   31.8341   65.3511 H   0  0  0  0  0  0  0  0  0  0  0  0
   27.3798   30.1548   65.8249 H   0  0  0  0  0  0  0  0  0  0  0  0
   29.8215   30.5235   65.6000 H   0  0  0  0  0  0  0  0  0  0  0  0
   29.3847   30.1468   67.2839 H   0  0  0  0  0  0  0  0  0  0  0  0
   29.7423   34.6534   67.5519 H   0  0  0  0  0  0  0  0  0  0  0  0
   29.7023   36.5224   65.9574 H   0  0  0  0  0  0  0  0  0  0  0  0
   32.1038   35.3695   63.5731 H   0  0  0  0  0  0  0  0  0  0  0  0
   32.9605   36.5776   62.5856 H   0  0  0  0  0  0  0  0  0  0  0  0
   32.6669   38.2574   64.3857 H   0  0  0  0  0  0  0  0  0  0  0  0
   31.8102   37.0495   65.3733 H   0  0  0  0  0  0  0  0  0  0  0  0
   33.5326   36.8226   64.9858 H   0  0  0  0  0  0  0  0  0  0  0  0
   29.8451   38.2753   61.6356 H   0  0  0  0  0  0  0  0  0  0  0  0
   31.3476   38.9204   62.3391 H   0  0  0  0  0  0  0  0  0  0  0  0
   32.2306   39.6589   60.1990 H   0  0  0  0  0  0  0  0  0  0  0  0
   33.4646   39.0236   58.1652 H   0  0  0  0  0  0  0  0  0  0  0  0
   33.5443   36.6659   57.4594 H   0  0  0  0  0  0  0  0  0  0  0  0
   32.3978   34.9422   58.7928 H   0  0  0  0  0  0  0  0  0  0  0  0
   31.1716   35.5763   60.8317 H   0  0  0  0  0  0  0  0  0  0  0  0
   29.8816   33.7329   62.7014 H   0  0  0  0  0  0  0  0  0  0  0  0
   29.9323   31.8732   64.3063 H   0  0  0  0  0  0  0  0  0  0  0  0
  1  2  1  0  0  0  0
  1 22  1  0  0  0  0
  1 23  1  0  0  0  0
  1 24  1  0  0  0  0
  2  3  1  0  0  0  0
  2 25  1  0  0  0  0
  2 26  1  0  0  0  0
  3  4  1  0  0  0  0
  4 21  2  0  0  0  0
  4  5  1  0  0  0  0
  5  6  2  0  0  0  0
  5 27  1  0  0  0  0
  6  7  1  0  0  0  0
  6 28  1  0  0  0  0
  7  8  1  0  0  0  0
  7 20  2  0  0  0  0
  8  9  2  0  0  0  0
  8 10  1  0  0  0  0
 10 11  1  0  0  0  0
 10 13  1  0  0  0  0
 11 12  1  0  0  0  0
 11 29  1  0  0  0  0
 11 30  1  0  0  0  0
 12 31  1  0  0  0  0
 12 32  1  0  0  0  0
 12 33  1  0  0  0  0
 13 14  1  0  0  0  0
 13 34  1  0  0  0  0
 13 35  1  0  0  0  0
 14 19  2  0  0  0  0
 14 15  1  0  0  0  0
 15 16  2  0  0  0  0
 15 36  1  0  0  0  0
 16 17  1  0  0  0  0
 16 37  1  0  0  0  0
 17 18  2  0  0  0  0
 17 38  1  0  0  0  0
 18 19  1  0  0  0  0
 18 39  1  0  0  0  0
 19 40  1  0  0  0  0
 20 21  1  0  0  0  0
 20 41  1  0  0  0  0
 21 42  1  0  0  0  0
M  END
$$$$
