ZINC000000000348      none
 OpenBabel11202420153D

 35 36  0  0  0  0  0  0  0  0999 V2000
   32.9202   33.9289   58.4317 C   0  0  0  0  0  0  0  0  0  0  0  0
   31.9631   34.9395   58.1085 O   0  0  0  0  0  0  0  0  0  0  0  0
   32.1289   36.1562   58.6926 C   0  0  0  0  0  0  0  0  0  0  0  0
   31.5374   36.4253   59.9167 C   0  0  0  0  0  0  0  0  0  0  0  0
   31.7015   37.6648   60.5059 C   0  0  0  0  0  0  0  0  0  0  0  0
   32.4607   38.6363   59.8802 C   0  0  0  0  0  0  0  0  0  0  0  0
   33.0590   38.3725   58.6624 C   0  0  0  0  0  0  0  0  0  0  0  0
   32.8982   37.1319   58.0657 C   0  0  0  0  0  0  0  0  0  0  0  0
   33.4862   36.8706   56.8678 O   0  0  0  0  0  0  0  0  0  0  0  0
   33.1377   37.6571   55.8308 C   0  0  0  0  0  0  0  0  0  0  0  0
   32.3312   38.5519   55.9911 O   0  0  0  0  0  0  0  0  0  0  0  0
   33.7351   37.4324   54.5016 C   0  0  0  0  0  0  0  0  0  0  0  0
   34.4803   38.4417   53.8864 C   0  0  0  0  0  0  0  0  0  0  0  0
   35.0363   38.2251   52.6443 C   0  0  0  0  0  0  0  0  0  0  0  0
   34.8588   37.0111   52.0012 C   0  0  0  0  0  0  0  0  0  0  0  0
   34.1252   36.0048   52.5982 C   0  0  0  0  0  0  0  0  0  0  0  0
   33.5635   36.2032   53.8504 C   0  0  0  0  0  0  0  0  0  0  0  0
   32.8464   35.2134   54.4404 O   0  0  0  0  0  0  0  0  0  0  0  0
   33.5207   34.3554   55.2232 C   0  0  0  0  0  0  0  0  0  0  0  0
   33.0475   32.9314   55.3628 C   0  0  0  0  0  0  0  0  0  0  0  0
   34.5068   34.7251   55.8156 O   0  0  0  0  0  0  0  0  0  0  0  0
   32.9037   33.7428   59.5055 H   0  0  0  0  0  0  0  0  0  0  0  0
   32.6721   33.0103   57.8999 H   0  0  0  0  0  0  0  0  0  0  0  0
   33.9148   34.2625   58.1359 H   0  0  0  0  0  0  0  0  0  0  0  0
   30.9438   35.6683   60.4077 H   0  0  0  0  0  0  0  0  0  0  0  0
   31.2359   37.8748   61.4575 H   0  0  0  0  0  0  0  0  0  0  0  0
   32.5867   39.6034   60.3441 H   0  0  0  0  0  0  0  0  0  0  0  0
   33.6515   39.1331   58.1758 H   0  0  0  0  0  0  0  0  0  0  0  0
   34.6208   39.3899   54.3838 H   0  0  0  0  0  0  0  0  0  0  0  0
   35.6118   39.0057   52.1693 H   0  0  0  0  0  0  0  0  0  0  0  0
   35.2992   36.8493   51.0284 H   0  0  0  0  0  0  0  0  0  0  0  0
   33.9920   35.0608   52.0908 H   0  0  0  0  0  0  0  0  0  0  0  0
   33.0476   32.4509   54.3844 H   0  0  0  0  0  0  0  0  0  0  0  0
   33.7155   32.3905   56.0331 H   0  0  0  0  0  0  0  0  0  0  0  0
   32.0372   32.9226   55.7717 H   0  0  0  0  0  0  0  0  0  0  0  0
  1  2  1  0  0  0  0
  1 22  1  0  0  0  0
  1 23  1  0  0  0  0
  1 24  1  0  0  0  0
  2  3  1  0  0  0  0
  3  8  2  0  0  0  0
  3  4  1  0  0  0  0
  4  5  2  0  0  0  0
  4 25  1  0  0  0  0
  5  6  1  0  0  0  0
  5 26  1  0  0  0  0
  6  7  2  0  0  0  0
  6 27  1  0  0  0  0
  7  8  1  0  0  0  0
  7 28  1  0  0  0  0
  8  9  1  0  0  0  0
  9 10  1  0  0  0  0
 10 11  2  0  0  0  0
 10 12  1  0  0  0  0
 12 17  2  0  0  0  0
 12 13  1  0  0  0  0
 13 14  2  0  0  0  0
 13 29  1  0  0  0  0
 14 15  1  0  0  0  0
 14 30  1  0  0  0  0
 15 16  2  0  0  0  0
 15 31  1  0  0  0  0
 16 17  1  0  0  0  0
 16 32  1  0  0  0  0
 17 18  1  0  0  0  0
 18 19  1  0  0  0  0
 19 20  1  0  0  0  0
 19 21  2  0  0  0  0
 20 33  1  0  0  0  0
 20 34  1  0  0  0  0
 20 35  1  0  0  0  0
M  END
$$$$
