ZINC000000043534      none
 OpenBabel11202420153D

 28 29  0  0  0  0  0  0  0  0999 V2000
   30.8834   39.4347   63.2151 O   0  0  0  0  0  0  0  0  0  0  0  0
   31.1469   38.4368   63.8571 C   0  0  0  0  0  0  0  0  0  0  0  0
   30.8693   38.3134   65.1618 N   0  0  0  0  0  0  0  0  0  0  0  0
   31.3151   36.9917   65.6276 C   0  0  0  0  0  0  0  0  0  0  0  0
   31.9074   36.3357   64.3652 C   0  0  0  0  0  0  0  0  0  0  0  0
   31.7407   37.3609   63.3242 N   0  0  0  0  0  0  0  0  0  0  0  0
   32.1201   37.2357   62.0369 C   0  0  0  0  0  0  0  0  0  0  0  0
   32.6531   36.2114   61.6574 O   0  0  0  0  0  0  0  0  0  0  0  0
   31.9084   38.2463   61.1707 N   0  0  0  0  0  0  0  0  0  0  0  0
   32.3028   38.1161   59.8324 C   0  0  0  0  0  0  0  0  0  0  0  0
   32.3180   36.8644   59.2320 C   0  0  0  0  0  0  0  0  0  0  0  0
   32.7013   36.7348   57.9106 C   0  0  0  0  0  0  0  0  0  0  0  0
   33.0820   37.8523   57.1854 C   0  0  0  0  0  0  0  0  0  0  0  0
   33.4640   37.7226   55.8860 O   0  0  0  0  0  0  0  0  0  0  0  0
   33.0681   39.1082   57.7845 C   0  0  0  0  0  0  0  0  0  0  0  0
   33.4363   40.2064   57.0721 O   0  0  0  0  0  0  0  0  0  0  0  0
   32.6786   39.2385   59.1073 C   0  0  0  0  0  0  0  0  0  0  0  0
   30.4421   38.9885   65.7118 H   0  0  0  0  0  0  0  0  0  0  0  0
   32.0752   37.0954   66.4019 H   0  0  0  0  0  0  0  0  0  0  0  0
   30.4700   36.4114   65.9978 H   0  0  0  0  0  0  0  0  0  0  0  0
   31.3543   35.4331   64.1053 H   0  0  0  0  0  0  0  0  0  0  0  0
   32.9632   36.1092   64.5135 H   0  0  0  0  0  0  0  0  0  0  0  0
   31.4830   39.0637   61.4737 H   0  0  0  0  0  0  0  0  0  0  0  0
   32.0259   35.9915   59.7970 H   0  0  0  0  0  0  0  0  0  0  0  0
   32.7082   35.7608   57.4439 H   0  0  0  0  0  0  0  0  0  0  0  0
   33.4374   36.8136   55.5571 H   0  0  0  0  0  0  0  0  0  0  0  0
   33.6913   40.0155   56.1590 H   0  0  0  0  0  0  0  0  0  0  0  0
   32.6675   40.2123   59.5742 H   0  0  0  0  0  0  0  0  0  0  0  0
  1  2  2  0  0  0  0
  2  6  1  0  0  0  0
  2  3  1  0  0  0  0
  3  4  1  0  0  0  0
  3 18  1  0  0  0  0
  4  5  1  0  0  0  0
  4 19  1  0  0  0  0
  4 20  1  0  0  0  0
  5  6  1  0  0  0  0
  5 21  1  0  0  0  0
  5 22  1  0  0  0  0
  6  7  1  0  0  0  0
  7  8  2  0  0  0  0
  7  9  1  0  0  0  0
  9 10  1  0  0  0  0
  9 23  1  0  0  0  0
 10 17  2  0  0  0  0
 10 11  1  0  0  0  0
 11 12  2  0  0  0  0
 11 24  1  0  0  0  0
 12 13  1  0  0  0  0
 12 25  1  0  0  0  0
 13 14  1  0  0  0  0
 13 15  2  0  0  0  0
 14 26  1  0  0  0  0
 15 16  1  0  0  0  0
 15 17  1  0  0  0  0
 16 27  1  0  0  0  0
 17 28  1  0  0  0  0
M  END
$$$$
