ZINC000000033675      none
 OpenBabel11202420153D

 37 39  0  0  0  0  0  0  0  0999 V2000
   34.0735   39.3248   56.1914 C   0  0  0  0  0  0  0  0  0  0  0  0
   33.6351   37.9197   56.5143 C   0  0  0  0  0  0  0  0  0  0  0  0
   33.6844   36.9180   55.6888 N   0  0  0  0  0  0  0  0  0  0  0  0
   33.2099   35.8083   56.3181 C   0  0  0  0  0  0  0  0  0  0  0  0
   33.0331   34.4794   55.9291 C   0  0  0  0  0  0  0  0  0  0  0  0
   32.5143   33.5623   56.8188 C   0  0  0  0  0  0  0  0  0  0  0  0
   32.1679   33.9441   58.1021 C   0  0  0  0  0  0  0  0  0  0  0  0
   32.3314   35.2672   58.5107 C   0  0  0  0  0  0  0  0  0  0  0  0
   31.9577   35.6735   59.8795 C   0  0  0  0  0  0  0  0  0  0  0  0
   31.5056   34.8535   60.6549 O   0  0  0  0  0  0  0  0  0  0  0  0
   32.1175   36.9536   60.2698 N   0  0  0  0  0  0  0  0  0  0  0  0
   31.7524   37.3555   61.6304 C   0  0  0  0  0  0  0  0  0  0  0  0
   32.5806   36.5557   62.6380 C   0  0  0  0  0  0  0  0  0  0  0  0
   32.1992   36.9754   64.0591 C   0  0  0  0  0  0  0  0  0  0  0  0
   30.7117   36.7014   64.2899 C   0  0  0  0  0  0  0  0  0  0  0  0
   29.8835   37.5012   63.2823 C   0  0  0  0  0  0  0  0  0  0  0  0
   30.2649   37.0815   61.8612 C   0  0  0  0  0  0  0  0  0  0  0  0
   32.8580   36.2064   57.6156 C   0  0  0  0  0  0  0  0  0  0  0  0
   33.1375   37.5233   57.6967 O   0  0  0  0  0  0  0  0  0  0  0  0
   33.2299   39.8852   55.7886 H   0  0  0  0  0  0  0  0  0  0  0  0
   34.4327   39.8109   57.0985 H   0  0  0  0  0  0  0  0  0  0  0  0
   34.8753   39.2948   55.4535 H   0  0  0  0  0  0  0  0  0  0  0  0
   33.3032   34.1691   54.9306 H   0  0  0  0  0  0  0  0  0  0  0  0
   32.3798   32.5358   56.5114 H   0  0  0  0  0  0  0  0  0  0  0  0
   31.7660   33.2148   58.7898 H   0  0  0  0  0  0  0  0  0  0  0  0
   32.4782   37.6079   59.6511 H   0  0  0  0  0  0  0  0  0  0  0  0
   31.9504   38.4195   61.7606 H   0  0  0  0  0  0  0  0  0  0  0  0
   32.3826   35.4917   62.5080 H   0  0  0  0  0  0  0  0  0  0  0  0
   33.6402   36.7508   62.4736 H   0  0  0  0  0  0  0  0  0  0  0  0
   32.3971   38.0392   64.1891 H   0  0  0  0  0  0  0  0  0  0  0  0
   32.7893   36.4056   64.7769 H   0  0  0  0  0  0  0  0  0  0  0  0
   30.4399   37.0003   65.3022 H   0  0  0  0  0  0  0  0  0  0  0  0
   30.5137   35.6375   64.1598 H   0  0  0  0  0  0  0  0  0  0  0  0
   30.0816   38.5651   63.4124 H   0  0  0  0  0  0  0  0  0  0  0  0
   28.8239   37.3061   63.4467 H   0  0  0  0  0  0  0  0  0  0  0  0
   29.6749   37.6514   61.1434 H   0  0  0  0  0  0  0  0  0  0  0  0
   30.0669   36.0176   61.7311 H   0  0  0  0  0  0  0  0  0  0  0  0
  1  2  1  0  0  0  0
  1 20  1  0  0  0  0
  1 21  1  0  0  0  0
  1 22  1  0  0  0  0
  2 19  1  0  0  0  0
  2  3  2  0  0  0  0
  3  4  1  0  0  0  0
  4 18  2  0  0  0  0
  4  5  1  0  0  0  0
  5  6  2  0  0  0  0
  5 23  1  0  0  0  0
  6  7  1  0  0  0  0
  6 24  1  0  0  0  0
  7  8  2  0  0  0  0
  7 25  1  0  0  0  0
  8  9  1  0  0  0  0
  8 18  1  0  0  0  0
  9 10  2  0  0  0  0
  9 11  1  0  0  0  0
 11 12  1  0  0  0  0
 11 26  1  0  0  0  0
 12 17  1  0  0  0  0
 12 13  1  0  0  0  0
 12 27  1  0  0  0  0
 13 14  1  0  0  0  0
 13 28  1  0  0  0  0
 13 29  1  0  0  0  0
 14 15  1  0  0  0  0
 14 30  1  0  0  0  0
 14 31  1  0  0  0  0
 15 16  1  0  0  0  0
 15 32  1  0  0  0  0
 15 33  1  0  0  0  0
 16 17  1  0  0  0  0
 16 34  1  0  0  0  0
 16 35  1  0  0  0  0
 17 36  1  0  0  0  0
 17 37  1  0  0  0  0
 18 19  1  0  0  0  0
M  END
$$$$
