ZINC000000039576      none
 OpenBabel11202420153D

 20 20  0  0  0  0  0  0  0  0999 V2000
   31.3233   36.1253   63.5025 N   0  0  0  0  0  0  0  0  0  0  0  0
   32.0844   36.9448   62.7504 C   0  0  0  0  0  0  0  0  0  0  0  0
   33.2701   36.7238   62.6229 O   0  0  0  0  0  0  0  0  0  0  0  0
   31.4624   38.1359   62.0682 C   0  0  0  0  0  0  0  0  0  0  0  0
   32.1938   38.4283   60.8330 N   0  0  0  0  0  0  0  0  0  0  0  0
   31.8171   37.8521   59.6743 C   0  0  0  0  0  0  0  0  0  0  0  0
   30.8694   37.0889   59.6541 O   0  0  0  0  0  0  0  0  0  0  0  0
   32.5491   38.1446   58.4385 C   0  0  0  0  0  0  0  0  0  0  0  0
   33.1970   37.2238   57.6640 C   0  0  0  0  0  0  0  0  0  0  0  0
   33.8024   37.7727   56.5585 C   0  0  0  0  0  0  0  0  0  0  0  0
   33.6567   39.0966   56.4301 C   0  0  0  0  0  0  0  0  0  0  0  0
   32.7341   39.7363   57.7149 S   0  0  0  0  0  0  0  0  0  0  0  0
   30.3750   36.3022   63.6045 H   0  0  0  0  0  0  0  0  0  0  0  0
   31.7236   35.3587   63.9415 H   0  0  0  0  0  0  0  0  0  0  0  0
   31.5091   38.9999   62.7313 H   0  0  0  0  0  0  0  0  0  0  0  0
   30.4215   37.9159   61.8307 H   0  0  0  0  0  0  0  0  0  0  0  0
   32.9493   39.0366   60.8491 H   0  0  0  0  0  0  0  0  0  0  0  0
   33.2265   36.1692   57.8949 H   0  0  0  0  0  0  0  0  0  0  0  0
   34.3549   37.1786   55.8456 H   0  0  0  0  0  0  0  0  0  0  0  0
   34.0680   39.6820   55.6211 H   0  0  0  0  0  0  0  0  0  0  0  0
  1  2  1  0  0  0  0
  1 13  1  0  0  0  0
  1 14  1  0  0  0  0
  2  3  2  0  0  0  0
  2  4  1  0  0  0  0
  4  5  1  0  0  0  0
  4 15  1  0  0  0  0
  4 16  1  0  0  0  0
  5  6  1  0  0  0  0
  5 17  1  0  0  0  0
  6  7  2  0  0  0  0
  6  8  1  0  0  0  0
  8 12  1  0  0  0  0
  8  9  2  0  0  0  0
  9 10  1  0  0  0  0
  9 18  1  0  0  0  0
 10 11  2  0  0  0  0
 10 19  1  0  0  0  0
 11 12  1  0  0  0  0
 11 20  1  0  0  0  0
M  END
$$$$
