ZINC000000051748      none
 OpenBabel11202420153D

 26 28  0  0  0  0  0  0  0  0999 V2000
   33.3132   40.6670   58.9395 N   0  0  0  0  0  0  0  0  0  0  0  0
   33.2753   39.4788   58.2665 N   0  0  0  0  0  0  0  0  0  0  0  0
   33.6645   39.2753   56.9689 C   0  0  0  0  0  0  0  0  0  0  0  0
   33.4927   38.0299   56.6579 N   0  0  0  0  0  0  0  0  0  0  0  0
   32.9732   37.3563   57.7647 N   0  0  0  0  0  0  0  0  0  0  0  0
   32.5374   36.1701   58.2800 C   0  0  0  0  0  0  0  0  0  0  0  0
   32.4757   34.6234   57.4383 S   0  0  0  0  0  0  0  0  0  0  0  0
   33.1173   35.0297   55.7908 C   0  0  0  0  0  0  0  0  0  0  0  0
   33.1279   33.7887   54.9358 C   0  0  0  0  0  0  0  0  0  0  0  0
   32.4866   33.7547   53.9131 O   0  0  0  0  0  0  0  0  0  0  0  0
   33.9388   32.5905   55.3568 C   0  0  0  0  0  0  0  0  0  0  0  0
   35.4092   32.8217   55.7111 C   0  0  0  0  0  0  0  0  0  0  0  0
   35.0383   32.1121   54.4064 C   0  0  0  0  0  0  0  0  0  0  0  0
   32.1725   36.3974   59.5198 N   0  0  0  0  0  0  0  0  0  0  0  0
   32.3506   37.6382   59.8100 N   0  0  0  0  0  0  0  0  0  0  0  0
   32.8446   38.2730   58.7750 C   0  0  0  0  0  0  0  0  0  0  0  0
   32.4488   41.1749   58.8254 H   0  0  0  0  0  0  0  0  0  0  0  0
   33.5217   40.5228   59.9161 H   0  0  0  0  0  0  0  0  0  0  0  0
   34.0540   40.0354   56.3078 H   0  0  0  0  0  0  0  0  0  0  0  0
   32.4803   35.7839   55.3287 H   0  0  0  0  0  0  0  0  0  0  0  0
   34.1321   35.4171   55.8814 H   0  0  0  0  0  0  0  0  0  0  0  0
   33.3981   31.8322   55.9229 H   0  0  0  0  0  0  0  0  0  0  0  0
   35.7900   33.8404   55.6396 H   0  0  0  0  0  0  0  0  0  0  0  0
   35.8358   32.2151   56.5100 H   0  0  0  0  0  0  0  0  0  0  0  0
   35.2211   31.0391   54.3475 H   0  0  0  0  0  0  0  0  0  0  0  0
   35.1748   32.6640   53.4764 H   0  0  0  0  0  0  0  0  0  0  0  0
  1  2  1  0  0  0  0
  1 17  1  0  0  0  0
  1 18  1  0  0  0  0
  2 16  1  0  0  0  0
  2  3  1  0  0  0  0
  3  4  2  0  0  0  0
  3 19  1  0  0  0  0
  4  5  1  0  0  0  0
  5 16  1  0  0  0  0
  5  6  1  0  0  0  0
  6  7  1  0  0  0  0
  6 14  2  0  0  0  0
  7  8  1  0  0  0  0
  8  9  1  0  0  0  0
  8 20  1  0  0  0  0
  8 21  1  0  0  0  0
  9 10  2  0  0  0  0
  9 11  1  0  0  0  0
 11 13  1  0  0  0  0
 11 12  1  0  0  0  0
 11 22  1  0  0  0  0
 12 13  1  0  0  0  0
 12 23  1  0  0  0  0
 12 24  1  0  0  0  0
 13 25  1  0  0  0  0
 13 26  1  0  0  0  0
 14 15  1  0  0  0  0
 15 16  2  0  0  0  0
M  END
$$$$
