ZINC000000056245      none
 OpenBabel11202420153D

 33 36  0  0  0  0  0  0  0  0999 V2000
   29.4113   38.8343   63.5484 C   0  0  0  0  0  0  0  0  0  0  0  0
   29.6410   38.5115   62.1754 O   0  0  0  0  0  0  0  0  0  0  0  0
   30.4403   37.4420   61.9181 C   0  0  0  0  0  0  0  0  0  0  0  0
   30.9912   36.7202   62.9669 C   0  0  0  0  0  0  0  0  0  0  0  0
   31.8043   35.6323   62.7091 C   0  0  0  0  0  0  0  0  0  0  0  0
   32.0717   35.2600   61.4022 C   0  0  0  0  0  0  0  0  0  0  0  0
   32.8728   34.1897   61.1494 O   0  0  0  0  0  0  0  0  0  0  0  0
   32.2358   32.9159   61.0322 C   0  0  0  0  0  0  0  0  0  0  0  0
   31.5244   35.9859   60.3465 C   0  0  0  0  0  0  0  0  0  0  0  0
   31.7971   35.6151   59.0249 N   0  0  0  0  0  0  0  0  0  0  0  0
   32.4205   36.5026   58.1750 C   0  0  0  0  0  0  0  0  0  0  0  0
   32.6724   36.1462   56.9372 N   0  0  0  0  0  0  0  0  0  0  0  0
   33.2858   36.9970   56.0729 C   0  0  0  0  0  0  0  0  0  0  0  0
   33.6360   36.8706   54.8134 N   0  0  0  0  0  0  0  0  0  0  0  0
   34.2470   38.0833   54.4099 O   0  0  0  0  0  0  0  0  0  0  0  0
   34.2420   38.9600   55.5224 N   0  0  0  0  0  0  0  0  0  0  0  0
   33.6783   38.3421   56.5215 C   0  0  0  0  0  0  0  0  0  0  0  0
   33.4117   38.7205   57.8318 N   0  0  0  0  0  0  0  0  0  0  0  0
   33.6218   39.7919   58.5113 N   0  0  0  0  0  0  0  0  0  0  0  0
   33.1617   39.6309   59.7036 N   0  0  0  0  0  0  0  0  0  0  0  0
   32.6576   38.4499   59.8240 N   0  0  0  0  0  0  0  0  0  0  0  0
   32.7890   37.8361   58.6635 C   0  0  0  0  0  0  0  0  0  0  0  0
   30.7044   37.0741   60.6080 C   0  0  0  0  0  0  0  0  0  0  0  0
   28.9377   37.9882   64.0462 H   0  0  0  0  0  0  0  0  0  0  0  0
   30.3619   39.0557   64.0335 H   0  0  0  0  0  0  0  0  0  0  0  0
   28.7591   39.7053   63.6126 H   0  0  0  0  0  0  0  0  0  0  0  0
   30.7847   37.0090   63.9870 H   0  0  0  0  0  0  0  0  0  0  0  0
   32.2318   35.0723   63.5277 H   0  0  0  0  0  0  0  0  0  0  0  0
   32.9864   32.1514   60.8311 H   0  0  0  0  0  0  0  0  0  0  0  0
   31.7186   32.6813   61.9626 H   0  0  0  0  0  0  0  0  0  0  0  0
   31.5166   32.9432   60.2136 H   0  0  0  0  0  0  0  0  0  0  0  0
   31.5473   34.7332   58.7072 H   0  0  0  0  0  0  0  0  0  0  0  0
   30.2759   37.6367   59.7917 H   0  0  0  0  0  0  0  0  0  0  0  0
  1  2  1  0  0  0  0
  1 24  1  0  0  0  0
  1 25  1  0  0  0  0
  1 26  1  0  0  0  0
  2  3  1  0  0  0  0
  3 23  2  0  0  0  0
  3  4  1  0  0  0  0
  4  5  2  0  0  0  0
  4 27  1  0  0  0  0
  5  6  1  0  0  0  0
  5 28  1  0  0  0  0
  6  7  1  0  0  0  0
  6  9  2  0  0  0  0
  7  8  1  0  0  0  0
  8 29  1  0  0  0  0
  8 30  1  0  0  0  0
  8 31  1  0  0  0  0
  9 10  1  0  0  0  0
  9 23  1  0  0  0  0
 10 11  1  0  0  0  0
 10 32  1  0  0  0  0
 11 22  1  0  0  0  0
 11 12  2  0  0  0  0
 12 13  1  0  0  0  0
 13 17  1  0  0  0  0
 13 14  2  0  0  0  0
 14 15  1  0  0  0  0
 15 16  1  0  0  0  0
 16 17  2  0  0  0  0
 17 18  1  0  0  0  0
 18 22  1  0  0  0  0
 18 19  1  0  0  0  0
 19 20  2  0  0  0  0
 20 21  1  0  0  0  0
 21 22  2  0  0  0  0
 23 33  1  0  0  0  0
M  END
$$$$
