ZINC000000023894      none
 OpenBabel11202420153D

 33 36  0  0  0  0  0  0  0  0999 V2000
   30.9101   32.6811   57.7198 O   0  0  0  0  0  0  0  0  0  0  0  0
   31.4882   33.3187   58.5743 C   0  0  0  0  0  0  0  0  0  0  0  0
   32.8743   33.8422   58.2885 C   0  0  0  0  0  0  0  0  0  0  0  0
   32.8193   35.3465   58.3816 C   0  0  0  0  0  0  0  0  0  0  0  0
   32.4278   36.0444   59.4769 C   0  0  0  0  0  0  0  0  0  0  0  0
   32.4561   37.3963   59.1952 N   0  0  0  0  0  0  0  0  0  0  0  0
   32.2036   38.1011   59.8121 H   0  0  0  0  0  0  0  0  0  0  0  0
   32.8934   37.5895   57.9160 C   0  0  0  0  0  0  0  0  0  0  0  0
   33.1020   38.7456   57.1672 C   0  0  0  0  0  0  0  0  0  0  0  0
   33.5613   38.5796   55.8716 C   0  0  0  0  0  0  0  0  0  0  0  0
   33.8082   37.3294   55.3279 C   0  0  0  0  0  0  0  0  0  0  0  0
   34.3007   37.2380   53.9351 N   0  0  0  0  0  0  0  0  0  0  0  0
   34.4828   38.2523   53.2858 O   0  0  0  0  0  0  0  0  0  0  0  0
   34.5239   36.1486   53.4383 O   0  0  0  0  0  0  0  0  0  0  0  0
   33.6107   36.1725   56.0405 C   0  0  0  0  0  0  0  0  0  0  0  0
   33.1447   36.3110   57.3531 C   0  0  0  0  0  0  0  0  0  0  0  0
   32.0402   35.4381   60.7697 C   0  0  0  0  0  0  0  0  0  0  0  0
   32.4109   36.1019   61.9445 C   0  0  0  0  0  0  0  0  0  0  0  0
   32.1282   35.5500   63.1743 C   0  0  0  0  0  0  0  0  0  0  0  0
   31.4743   34.3319   63.2492 C   0  0  0  0  0  0  0  0  0  0  0  0
   31.0929   33.6752   62.0999 C   0  0  0  0  0  0  0  0  0  0  0  0
   31.3577   34.2235   60.8425 C   0  0  0  0  0  0  0  0  0  0  0  0
   30.8837   33.5378   59.7394 N   0  0  0  0  0  0  0  0  0  0  0  0
   33.5767   33.4512   59.0246 H   0  0  0  0  0  0  0  0  0  0  0  0
   33.1830   33.5445   57.2864 H   0  0  0  0  0  0  0  0  0  0  0  0
   32.9139   39.7264   57.5783 H   0  0  0  0  0  0  0  0  0  0  0  0
   33.7334   39.4553   55.2635 H   0  0  0  0  0  0  0  0  0  0  0  0
   33.8066   35.2020   55.6092 H   0  0  0  0  0  0  0  0  0  0  0  0
   32.9253   37.0498   61.8864 H   0  0  0  0  0  0  0  0  0  0  0  0
   32.4163   36.0660   64.0783 H   0  0  0  0  0  0  0  0  0  0  0  0
   31.2624   33.8942   64.2136 H   0  0  0  0  0  0  0  0  0  0  0  0
   30.5837   32.7255   62.1716 H   0  0  0  0  0  0  0  0  0  0  0  0
   29.9915   33.1672   59.8262 H   0  0  0  0  0  0  0  0  0  0  0  0
  1  2  2  0  0  0  0
  2 23  1  0  0  0  0
  2  3  1  0  0  0  0
  3  4  1  0  0  0  0
  3 24  1  0  0  0  0
  3 25  1  0  0  0  0
  4 16  1  0  0  0  0
  4  5  2  0  0  0  0
  5  6  1  0  0  0  0
  5 17  1  0  0  0  0
  6  7  1  0  0  0  0
  6  8  1  0  0  0  0
  8 16  2  0  0  0  0
  8  9  1  0  0  0  0
  9 10  2  0  0  0  0
  9 26  1  0  0  0  0
 10 11  1  0  0  0  0
 10 27  1  0  0  0  0
 11 12  1  0  0  0  0
 11 15  2  0  0  0  0
 12 13  2  0  0  0  0
 12 14  2  0  0  0  0
 15 16  1  0  0  0  0
 15 28  1  0  0  0  0
 17 22  2  0  0  0  0
 17 18  1  0  0  0  0
 18 19  2  0  0  0  0
 18 29  1  0  0  0  0
 19 20  1  0  0  0  0
 19 30  1  0  0  0  0
 20 21  2  0  0  0  0
 20 31  1  0  0  0  0
 21 22  1  0  0  0  0
 21 32  1  0  0  0  0
 22 23  1  0  0  0  0
 23 33  1  0  0  0  0
M  END
$$$$
