ZINC000000019047      none
 OpenBabel11202420153D

 45 47  0  0  0  0  0  0  0  0999 V2000
   33.3642   36.5448   64.6620 C   0  0  0  0  0  0  0  0  0  0  0  0
   32.6097   37.5623   64.0008 O   0  0  0  0  0  0  0  0  0  0  0  0
   31.8482   37.1766   62.9421 C   0  0  0  0  0  0  0  0  0  0  0  0
   32.3825   37.1844   61.6669 C   0  0  0  0  0  0  0  0  0  0  0  0
   31.5975   36.7877   60.5819 C   0  0  0  0  0  0  0  0  0  0  0  0
   32.1628   36.7939   59.2179 C   0  0  0  0  0  0  0  0  0  0  0  0
   32.2783   35.7238   58.4076 O   0  0  0  0  0  0  0  0  0  0  0  0
   32.8374   36.1048   57.2426 C   0  0  0  0  0  0  0  0  0  0  0  0
   33.1311   35.2220   56.0958 C   0  0  0  0  0  0  0  0  0  0  0  0
   33.9940   34.1349   56.2521 C   0  0  0  0  0  0  0  0  0  0  0  0
   34.2712   33.3146   55.1785 C   0  0  0  0  0  0  0  0  0  0  0  0
   33.6864   33.5599   53.9450 C   0  0  0  0  0  0  0  0  0  0  0  0
   33.9586   32.7447   52.8912 O   0  0  0  0  0  0  0  0  0  0  0  0
   32.8204   34.6389   53.7833 C   0  0  0  0  0  0  0  0  0  0  0  0
   32.2488   34.8763   52.5723 O   0  0  0  0  0  0  0  0  0  0  0  0
   32.9603   35.7316   51.6755 C   0  0  0  0  0  0  0  0  0  0  0  0
   32.5423   35.4687   54.8536 C   0  0  0  0  0  0  0  0  0  0  0  0
   33.0911   37.4415   57.3045 C   0  0  0  0  0  0  0  0  0  0  0  0
   33.7171   38.2867   56.2253 C   0  0  0  0  0  0  0  0  0  0  0  0
   32.6555   37.8827   58.5644 C   0  0  0  0  0  0  0  0  0  0  0  0
   32.7249   39.2916   59.0948 C   0  0  0  0  0  0  0  0  0  0  0  0
   30.2747   36.3905   60.7897 C   0  0  0  0  0  0  0  0  0  0  0  0
   29.7504   36.3790   62.0654 C   0  0  0  0  0  0  0  0  0  0  0  0
   30.5301   36.7735   63.1427 C   0  0  0  0  0  0  0  0  0  0  0  0
   30.0065   36.7661   64.3975 O   0  0  0  0  0  0  0  0  0  0  0  0
   32.6867   35.7844   65.0502 H   0  0  0  0  0  0  0  0  0  0  0  0
   34.0561   36.0878   63.9545 H   0  0  0  0  0  0  0  0  0  0  0  0
   33.9255   36.9860   65.4857 H   0  0  0  0  0  0  0  0  0  0  0  0
   33.4043   37.4968   61.5101 H   0  0  0  0  0  0  0  0  0  0  0  0
   34.4473   33.9389   57.2127 H   0  0  0  0  0  0  0  0  0  0  0  0
   34.9417   32.4767   55.2998 H   0  0  0  0  0  0  0  0  0  0  0  0
   33.5058   32.9938   52.0740 H   0  0  0  0  0  0  0  0  0  0  0  0
   33.0911   36.7114   52.1349 H   0  0  0  0  0  0  0  0  0  0  0  0
   33.9369   35.2987   51.4587 H   0  0  0  0  0  0  0  0  0  0  0  0
   32.3958   35.8371   50.7492 H   0  0  0  0  0  0  0  0  0  0  0  0
   31.8712   36.3058   54.7295 H   0  0  0  0  0  0  0  0  0  0  0  0
   32.9469   38.6118   55.5258 H   0  0  0  0  0  0  0  0  0  0  0  0
   34.1903   39.1591   56.6758 H   0  0  0  0  0  0  0  0  0  0  0  0
   34.4667   37.7005   55.6937 H   0  0  0  0  0  0  0  0  0  0  0  0
   33.7051   39.4648   59.5389 H   0  0  0  0  0  0  0  0  0  0  0  0
   32.5669   39.9955   58.2777 H   0  0  0  0  0  0  0  0  0  0  0  0
   31.9529   39.4336   59.8512 H   0  0  0  0  0  0  0  0  0  0  0  0
   29.6639   36.0875   59.9521 H   0  0  0  0  0  0  0  0  0  0  0  0
   28.7289   36.0671   62.2253 H   0  0  0  0  0  0  0  0  0  0  0  0
   30.6239   37.0563   65.0831 H   0  0  0  0  0  0  0  0  0  0  0  0
  1  2  1  0  0  0  0
  1 26  1  0  0  0  0
  1 27  1  0  0  0  0
  1 28  1  0  0  0  0
  2  3  1  0  0  0  0
  3 24  2  0  0  0  0
  3  4  1  0  0  0  0
  4  5  2  0  0  0  0
  4 29  1  0  0  0  0
  5  6  1  0  0  0  0
  5 22  1  0  0  0  0
  6 20  2  0  0  0  0
  6  7  1  0  0  0  0
  7  8  1  0  0  0  0
  8  9  1  0  0  0  0
  8 18  2  0  0  0  0
  9 17  2  0  0  0  0
  9 10  1  0  0  0  0
 10 11  2  0  0  0  0
 10 30  1  0  0  0  0
 11 12  1  0  0  0  0
 11 31  1  0  0  0  0
 12 13  1  0  0  0  0
 12 14  2  0  0  0  0
 13 32  1  0  0  0  0
 14 15  1  0  0  0  0
 14 17  1  0  0  0  0
 15 16  1  0  0  0  0
 16 33  1  0  0  0  0
 16 34  1  0  0  0  0
 16 35  1  0  0  0  0
 17 36  1  0  0  0  0
 18 19  1  0  0  0  0
 18 20  1  0  0  0  0
 19 37  1  0  0  0  0
 19 38  1  0  0  0  0
 19 39  1  0  0  0  0
 20 21  1  0  0  0  0
 21 40  1  0  0  0  0
 21 41  1  0  0  0  0
 21 42  1  0  0  0  0
 22 23  2  0  0  0  0
 22 43  1  0  0  0  0
 23 24  1  0  0  0  0
 23 44  1  0  0  0  0
 24 25  1  0  0  0  0
 25 45  1  0  0  0  0
M  END
$$$$
