ZINC000000031528      none
 OpenBabel11202420163D

 25 26  0  0  0  0  0  0  0  0999 V2000
   32.3708   35.2431   59.0633 C   0  0  0  0  0  0  0  0  0  0  0  0
   32.6350   36.5958   58.4540 C   0  0  0  0  0  0  0  0  0  0  0  0
   33.2199   36.6883   57.2060 C   0  0  0  0  0  0  0  0  0  0  0  0
   33.4625   37.9344   56.6451 C   0  0  0  0  0  0  0  0  0  0  0  0
   34.0566   38.0309   55.3786 N   0  0  0  0  0  0  0  0  0  0  0  0
   34.8261   39.0647   55.0161 C   0  0  0  0  0  0  0  0  0  0  0  0
   35.0971   40.0173   55.7152 O   0  0  0  0  0  0  0  0  0  0  0  0
   35.3067   38.8539   53.5969 C   0  0  0  0  0  0  0  0  0  0  0  0
   34.6667   37.5098   53.1942 C   0  0  0  0  0  0  0  0  0  0  0  0
   33.8963   37.0995   54.4304 C   0  0  0  0  0  0  0  0  0  0  0  0
   33.2380   36.0879   54.5438 O   0  0  0  0  0  0  0  0  0  0  0  0
   33.1169   39.0854   57.3406 C   0  0  0  0  0  0  0  0  0  0  0  0
   32.5324   38.9877   58.5879 C   0  0  0  0  0  0  0  0  0  0  0  0
   32.2911   37.7440   59.1447 C   0  0  0  0  0  0  0  0  0  0  0  0
   31.4906   37.6139   60.8529 Br  0  0  0  0  0  0  0  0  0  0  0  0
   31.3772   34.9016   58.7730 H   0  0  0  0  0  0  0  0  0  0  0  0
   33.1173   34.5326   58.7084 H   0  0  0  0  0  0  0  0  0  0  0  0
   32.4267   35.3167   60.1495 H   0  0  0  0  0  0  0  0  0  0  0  0
   33.4878   35.7915   56.6670 H   0  0  0  0  0  0  0  0  0  0  0  0
   36.3941   38.7867   53.5625 H   0  0  0  0  0  0  0  0  0  0  0  0
   34.9504   39.6571   52.9516 H   0  0  0  0  0  0  0  0  0  0  0  0
   35.4356   36.7738   52.9596 H   0  0  0  0  0  0  0  0  0  0  0  0
   33.9923   37.6415   52.3481 H   0  0  0  0  0  0  0  0  0  0  0  0
   33.3047   40.0562   56.9063 H   0  0  0  0  0  0  0  0  0  0  0  0
   32.2593   39.8826   59.1273 H   0  0  0  0  0  0  0  0  0  0  0  0
  1  2  1  0  0  0  0
  1 16  1  0  0  0  0
  1 17  1  0  0  0  0
  1 18  1  0  0  0  0
  2 14  2  0  0  0  0
  2  3  1  0  0  0  0
  3  4  2  0  0  0  0
  3 19  1  0  0  0  0
  4  5  1  0  0  0  0
  4 12  1  0  0  0  0
  5 10  1  0  0  0  0
  5  6  1  0  0  0  0
  6  7  2  0  0  0  0
  6  8  1  0  0  0  0
  8  9  1  0  0  0  0
  8 20  1  0  0  0  0
  8 21  1  0  0  0  0
  9 10  1  0  0  0  0
  9 22  1  0  0  0  0
  9 23  1  0  0  0  0
 10 11  2  0  0  0  0
 12 13  2  0  0  0  0
 12 24  1  0  0  0  0
 13 14  1  0  0  0  0
 13 25  1  0  0  0  0
 14 15  1  0  0  0  0
M  END
$$$$
