ZINC000000000681      none
 OpenBabel11202420153D

 41 42  0  0  1  0  0  0  0  0999 V2000
   32.4095   39.3311   66.6781 C   0  0  0  0  0  0  0  0  0  0  0  0
   32.3313   38.3782   65.4837 C   0  0  0  0  0  0  0  0  0  0  0  0
   31.3770   37.2278   65.8106 C   0  0  0  0  0  0  0  0  0  0  0  0
   31.2989   36.2751   64.6161 C   0  0  2  0  0  0  0  0  0  0  0  0
   32.2914   36.1545   64.1819 H   0  0  0  0  0  0  0  0  0  0  0  0
   30.3633   36.8436   63.5804 C   0  0  0  0  0  0  0  0  0  0  0  0
   29.2032   37.0555   63.8624 O   0  0  0  0  0  0  0  0  0  0  0  0
   30.8576   37.1415   62.2266 C   0  0  0  0  0  0  0  0  0  0  0  0
   29.9951   37.0572   61.1290 C   0  0  0  0  0  0  0  0  0  0  0  0
   30.4660   37.3375   59.8637 C   0  0  0  0  0  0  0  0  0  0  0  0
   31.7897   37.6963   59.6777 C   0  0  0  0  0  0  0  0  0  0  0  0
   32.2976   37.9949   58.2907 C   0  0  0  0  0  0  0  0  0  0  0  0
   32.6482   37.7871   60.7595 C   0  0  0  0  0  0  0  0  0  0  0  0
   32.1925   37.5099   62.0311 C   0  0  0  0  0  0  0  0  0  0  0  0
   30.7982   34.9686   65.0637 N   0  0  0  0  0  0  0  0  0  0  0  0
   29.6687   35.1289   66.0150 C   0  0  0  0  0  0  0  0  0  0  0  0
   28.9583   33.7533   65.9569 C   0  0  0  0  0  0  0  0  0  0  0  0
   29.0746   33.3669   64.4644 C   0  0  0  0  0  0  0  0  0  0  0  0
   30.2606   34.1892   63.9274 C   0  0  0  0  0  0  0  0  0  0  0  0
   31.4176   39.7307   66.8897 H   0  0  0  0  0  0  0  0  0  0  0  0
   32.7772   38.7908   67.5504 H   0  0  0  0  0  0  0  0  0  0  0  0
   33.0892   40.1507   66.4452 H   0  0  0  0  0  0  0  0  0  0  0  0
   33.3231   37.9787   65.2720 H   0  0  0  0  0  0  0  0  0  0  0  0
   31.9635   38.9187   64.6113 H   0  0  0  0  0  0  0  0  0  0  0  0
   30.3852   37.6275   66.0222 H   0  0  0  0  0  0  0  0  0  0  0  0
   31.7447   36.6876   66.6828 H   0  0  0  0  0  0  0  0  0  0  0  0
   28.9630   36.7730   61.2720 H   0  0  0  0  0  0  0  0  0  0  0  0
   29.8012   37.2725   59.0150 H   0  0  0  0  0  0  0  0  0  0  0  0
   32.1689   39.0561   58.0772 H   0  0  0  0  0  0  0  0  0  0  0  0
   33.3548   37.7372   58.2275 H   0  0  0  0  0  0  0  0  0  0  0  0
   31.7363   37.4075   57.5640 H   0  0  0  0  0  0  0  0  0  0  0  0
   33.6789   38.0714   60.6068 H   0  0  0  0  0  0  0  0  0  0  0  0
   32.8646   37.5775   62.8738 H   0  0  0  0  0  0  0  0  0  0  0  0
   30.0384   35.3287   67.0207 H   0  0  0  0  0  0  0  0  0  0  0  0
   28.9981   35.9225   65.6857 H   0  0  0  0  0  0  0  0  0  0  0  0
   27.9128   33.8464   66.2508 H   0  0  0  0  0  0  0  0  0  0  0  0
   29.4706   33.0247   66.5850 H   0  0  0  0  0  0  0  0  0  0  0  0
   28.1601   33.6305   63.9330 H   0  0  0  0  0  0  0  0  0  0  0  0
   29.2773   32.3007   64.3644 H   0  0  0  0  0  0  0  0  0  0  0  0
   29.9194   34.8642   63.1425 H   0  0  0  0  0  0  0  0  0  0  0  0
   31.0295   33.5216   63.5384 H   0  0  0  0  0  0  0  0  0  0  0  0
  1  2  1  0  0  0  0
  1 20  1  0  0  0  0
  1 21  1  0  0  0  0
  1 22  1  0  0  0  0
  2  3  1  0  0  0  0
  2 23  1  0  0  0  0
  2 24  1  0  0  0  0
  3  4  1  0  0  0  0
  3 25  1  0  0  0  0
  3 26  1  0  0  0  0
  4  5  1  6  0  0  0
  4  6  1  0  0  0  0
  4 15  1  0  0  0  0
  6  7  2  0  0  0  0
  6  8  1  0  0  0  0
  8 14  2  0  0  0  0
  8  9  1  0  0  0  0
  9 10  2  0  0  0  0
  9 27  1  0  0  0  0
 10 11  1  0  0  0  0
 10 28  1  0  0  0  0
 11 12  1  0  0  0  0
 11 13  2  0  0  0  0
 12 29  1  0  0  0  0
 12 30  1  0  0  0  0
 12 31  1  0  0  0  0
 13 14  1  0  0  0  0
 13 32  1  0  0  0  0
 14 33  1  0  0  0  0
 15 19  1  0  0  0  0
 15 16  1  0  0  0  0
 16 17  1  0  0  0  0
 16 34  1  0  0  0  0
 16 35  1  0  0  0  0
 17 18  1  0  0  0  0
 17 36  1  0  0  0  0
 17 37  1  0  0  0  0
 18 19  1  0  0  0  0
 18 38  1  0  0  0  0
 18 39  1  0  0  0  0
 19 40  1  0  0  0  0
 19 41  1  0  0  0  0
M  END
$$$$
