ZINC000000015754      none
 OpenBabel11202420153D

 38 39  0  0  0  0  0  0  0  0999 V2000
   28.4995   32.0616   64.7322 C   0  0  0  0  0  0  0  0  0  0  0  0
   29.8990   32.3504   64.7443 O   0  0  0  0  0  0  0  0  0  0  0  0
   30.3246   33.3756   63.9584 C   0  0  0  0  0  0  0  0  0  0  0  0
   30.7068   33.1318   62.6528 C   0  0  0  0  0  0  0  0  0  0  0  0
   31.1441   34.1855   61.8457 C   0  0  0  0  0  0  0  0  0  0  0  0
   31.5588   33.9270   60.4522 C   0  0  0  0  0  0  0  0  0  0  0  0
   31.5199   32.7951   60.0054 O   0  0  0  0  0  0  0  0  0  0  0  0
   32.0066   35.0078   59.6262 C   0  0  0  0  0  0  0  0  0  0  0  0
   32.3737   35.8938   58.9490 C   0  0  0  0  0  0  0  0  0  0  0  0
   32.8216   36.9744   58.1232 C   0  0  0  0  0  0  0  0  0  0  0  0
   32.8623   38.2773   58.6309 C   0  0  0  0  0  0  0  0  0  0  0  0
   33.2998   39.3116   57.8310 C   0  0  0  0  0  0  0  0  0  0  0  0
   33.6876   39.0651   56.5252 C   0  0  0  0  0  0  0  0  0  0  0  0
   33.6453   37.7796   56.0139 C   0  0  0  0  0  0  0  0  0  0  0  0
   33.2153   36.7337   56.8025 C   0  0  0  0  0  0  0  0  0  0  0  0
   31.1938   35.4834   62.3615 C   0  0  0  0  0  0  0  0  0  0  0  0
   30.8110   35.7216   63.6680 C   0  0  0  0  0  0  0  0  0  0  0  0
   30.8600   36.9843   64.1707 O   0  0  0  0  0  0  0  0  0  0  0  0
   32.0798   37.3863   64.7971 C   0  0  0  0  0  0  0  0  0  0  0  0
   30.3756   34.6698   64.4702 C   0  0  0  0  0  0  0  0  0  0  0  0
   30.0002   34.9066   65.7545 O   0  0  0  0  0  0  0  0  0  0  0  0
   28.9129   35.8116   65.9563 C   0  0  0  0  0  0  0  0  0  0  0  0
   28.1908   31.8018   63.7196 H   0  0  0  0  0  0  0  0  0  0  0  0
   28.2955   31.2246   65.4001 H   0  0  0  0  0  0  0  0  0  0  0  0
   27.9448   32.9377   65.0677 H   0  0  0  0  0  0  0  0  0  0  0  0
   30.6671   32.1280   62.2564 H   0  0  0  0  0  0  0  0  0  0  0  0
   32.5555   38.4720   59.6479 H   0  0  0  0  0  0  0  0  0  0  0  0
   33.3361   40.3173   58.2228 H   0  0  0  0  0  0  0  0  0  0  0  0
   34.0248   39.8803   55.9022 H   0  0  0  0  0  0  0  0  0  0  0  0
   33.9495   37.5955   54.9940 H   0  0  0  0  0  0  0  0  0  0  0  0
   33.1821   35.7313   56.4017 H   0  0  0  0  0  0  0  0  0  0  0  0
   31.5317   36.2994   61.7399 H   0  0  0  0  0  0  0  0  0  0  0  0
   31.9846   38.4120   65.1533 H   0  0  0  0  0  0  0  0  0  0  0  0
   32.2901   36.7273   65.6395 H   0  0  0  0  0  0  0  0  0  0  0  0
   32.8953   37.3262   64.0765 H   0  0  0  0  0  0  0  0  0  0  0  0
   29.1700   36.7864   65.5420 H   0  0  0  0  0  0  0  0  0  0  0  0
   28.0232   35.4277   65.4571 H   0  0  0  0  0  0  0  0  0  0  0  0
   28.7161   35.9109   67.0238 H   0  0  0  0  0  0  0  0  0  0  0  0
  1  2  1  0  0  0  0
  1 23  1  0  0  0  0
  1 24  1  0  0  0  0
  1 25  1  0  0  0  0
  2  3  1  0  0  0  0
  3 20  2  0  0  0  0
  3  4  1  0  0  0  0
  4  5  2  0  0  0  0
  4 26  1  0  0  0  0
  5  6  1  0  0  0  0
  5 16  1  0  0  0  0
  6  7  2  0  0  0  0
  6  8  1  0  0  0  0
  8  9  3  0  0  0  0
  9 10  1  0  0  0  0
 10 15  2  0  0  0  0
 10 11  1  0  0  0  0
 11 12  2  0  0  0  0
 11 27  1  0  0  0  0
 12 13  1  0  0  0  0
 12 28  1  0  0  0  0
 13 14  2  0  0  0  0
 13 29  1  0  0  0  0
 14 15  1  0  0  0  0
 14 30  1  0  0  0  0
 15 31  1  0  0  0  0
 16 17  2  0  0  0  0
 16 32  1  0  0  0  0
 17 18  1  0  0  0  0
 17 20  1  0  0  0  0
 18 19  1  0  0  0  0
 19 33  1  0  0  0  0
 19 34  1  0  0  0  0
 19 35  1  0  0  0  0
 20 21  1  0  0  0  0
 21 22  1  0  0  0  0
 22 36  1  0  0  0  0
 22 37  1  0  0  0  0
 22 38  1  0  0  0  0
M  END
$$$$
