ZINC000000030794      none
 OpenBabel11202420163D

 41 42  0  0  1  0  0  0  0  0999 V2000
   31.1141   33.6181   58.8781 C   0  0  0  0  0  0  0  0  0  0  0  0
   31.4339   34.0196   60.3193 C   0  0  0  0  0  0  0  0  0  0  0  0
   30.7120   35.3255   60.6572 C   0  0  2  0  0  0  0  0  0  0  0  0
   29.6365   35.1847   60.5494 H   0  0  0  0  0  0  0  0  0  0  0  0
   31.1729   36.4114   59.7192 C   0  0  0  0  0  0  0  0  0  0  0  0
   30.4203   37.3142   59.4202 O   0  0  0  0  0  0  0  0  0  0  0  0
   32.4215   36.3789   59.2125 N   0  0  0  0  0  0  0  0  0  0  0  0
   32.8474   37.3824   58.3459 C   0  0  0  0  0  0  0  0  0  0  0  0
   32.8673   38.7055   58.7664 C   0  0  0  0  0  0  0  0  0  0  0  0
   33.2840   39.6991   57.9038 C   0  0  0  0  0  0  0  0  0  0  0  0
   33.6957   39.3852   56.6183 C   0  0  0  0  0  0  0  0  0  0  0  0
   33.6828   38.0779   56.1833 C   0  0  0  0  0  0  0  0  0  0  0  0
   33.2581   37.0614   57.0430 C   0  0  0  0  0  0  0  0  0  0  0  0
   33.2422   35.6608   56.5845 C   0  0  0  0  0  0  0  0  0  0  0  0
   33.9096   34.8251   57.1613 O   0  0  0  0  0  0  0  0  0  0  0  0
   32.4875   35.3070   55.5257 O   0  0  0  0  0  0  0  0  0  0  0  0
   32.5203   33.9103   55.1301 C   0  0  0  0  0  0  0  0  0  0  0  0
   31.0273   35.7211   62.0768 C   0  0  0  0  0  0  0  0  0  0  0  0
   30.2211   35.2842   63.1113 C   0  0  0  0  0  0  0  0  0  0  0  0
   30.5125   35.6439   64.4138 C   0  0  0  0  0  0  0  0  0  0  0  0
   31.6053   36.4472   64.6810 C   0  0  0  0  0  0  0  0  0  0  0  0
   32.4085   36.8883   63.6461 C   0  0  0  0  0  0  0  0  0  0  0  0
   32.1193   36.5254   62.3439 C   0  0  0  0  0  0  0  0  0  0  0  0
   31.6283   32.6877   58.6374 H   0  0  0  0  0  0  0  0  0  0  0  0
   30.0387   33.4771   58.7703 H   0  0  0  0  0  0  0  0  0  0  0  0
   31.4474   34.4034   58.1997 H   0  0  0  0  0  0  0  0  0  0  0  0
   32.5093   34.1605   60.4272 H   0  0  0  0  0  0  0  0  0  0  0  0
   31.1005   33.2342   60.9978 H   0  0  0  0  0  0  0  0  0  0  0  0
   33.0234   35.6569   59.4517 H   0  0  0  0  0  0  0  0  0  0  0  0
   32.5523   38.9580   59.7681 H   0  0  0  0  0  0  0  0  0  0  0  0
   33.2935   40.7273   58.2341 H   0  0  0  0  0  0  0  0  0  0  0  0
   34.0245   40.1695   55.9528 H   0  0  0  0  0  0  0  0  0  0  0  0
   34.0008   37.8390   55.1792 H   0  0  0  0  0  0  0  0  0  0  0  0
   31.8706   33.7617   54.2675 H   0  0  0  0  0  0  0  0  0  0  0  0
   33.5409   33.6306   54.8688 H   0  0  0  0  0  0  0  0  0  0  0  0
   32.1739   33.2902   55.9569 H   0  0  0  0  0  0  0  0  0  0  0  0
   29.3653   34.6595   62.9021 H   0  0  0  0  0  0  0  0  0  0  0  0
   29.8848   35.2995   65.2224 H   0  0  0  0  0  0  0  0  0  0  0  0
   31.8314   36.7303   65.6984 H   0  0  0  0  0  0  0  0  0  0  0  0
   33.2620   37.5162   63.8548 H   0  0  0  0  0  0  0  0  0  0  0  0
   32.7468   36.8702   61.5353 H   0  0  0  0  0  0  0  0  0  0  0  0
  1  2  1  0  0  0  0
  1 24  1  0  0  0  0
  1 25  1  0  0  0  0
  1 26  1  0  0  0  0
  2  3  1  0  0  0  0
  2 27  1  0  0  0  0
  2 28  1  0  0  0  0
  3  4  1  6  0  0  0
  3  5  1  0  0  0  0
  3 18  1  0  0  0  0
  5  6  2  0  0  0  0
  5  7  1  0  0  0  0
  7  8  1  0  0  0  0
  7 29  1  0  0  0  0
  8 13  2  0  0  0  0
  8  9  1  0  0  0  0
  9 10  2  0  0  0  0
  9 30  1  0  0  0  0
 10 11  1  0  0  0  0
 10 31  1  0  0  0  0
 11 12  2  0  0  0  0
 11 32  1  0  0  0  0
 12 13  1  0  0  0  0
 12 33  1  0  0  0  0
 13 14  1  0  0  0  0
 14 15  2  0  0  0  0
 14 16  1  0  0  0  0
 16 17  1  0  0  0  0
 17 34  1  0  0  0  0
 17 35  1  0  0  0  0
 17 36  1  0  0  0  0
 18 23  2  0  0  0  0
 18 19  1  0  0  0  0
 19 20  2  0  0  0  0
 19 37  1  0  0  0  0
 20 21  1  0  0  0  0
 20 38  1  0  0  0  0
 21 22  2  0  0  0  0
 21 39  1  0  0  0  0
 22 23  1  0  0  0  0
 22 40  1  0  0  0  0
 23 41  1  0  0  0  0
M  END
$$$$
