ZINC000000041695      none
 OpenBabel11202420153D

 30 32  0  0  0  0  0  0  0  0999 V2000
   34.7472   39.4450   54.9023 Br  0  0  0  0  0  0  0  0  0  0  0  0
   33.7920   39.0447   56.4843 C   0  0  0  0  0  0  0  0  0  0  0  0
   33.8345   39.9206   57.5558 C   0  0  0  0  0  0  0  0  0  0  0  0
   33.1397   39.6339   58.7124 C   0  0  0  0  0  0  0  0  0  0  0  0
   32.3925   38.4586   58.8010 C   0  0  0  0  0  0  0  0  0  0  0  0
   31.6460   38.1453   60.0381 C   0  0  0  0  0  0  0  0  0  0  0  0
   30.9088   37.0812   60.2542 N   0  0  0  0  0  0  0  0  0  0  0  0
   30.4164   37.1403   61.4414 N   0  0  0  0  0  0  0  0  0  0  0  0
   30.8088   38.2399   62.0217 C   0  0  0  0  0  0  0  0  0  0  0  0
   30.4498   38.6876   63.4152 C   0  0  0  0  0  0  0  0  0  0  0  0
   31.4704   38.1602   64.3907 C   0  0  0  0  0  0  0  0  0  0  0  0
   31.3494   38.4439   65.7382 C   0  0  0  0  0  0  0  0  0  0  0  0
   32.2857   37.9604   66.6330 C   0  0  0  0  0  0  0  0  0  0  0  0
   33.3428   37.1933   66.1802 C   0  0  0  0  0  0  0  0  0  0  0  0
   33.4666   36.9141   64.8321 C   0  0  0  0  0  0  0  0  0  0  0  0
   32.5274   37.3930   63.9379 C   0  0  0  0  0  0  0  0  0  0  0  0
   31.5962   38.8993   61.1545 O   0  0  0  0  0  0  0  0  0  0  0  0
   32.3573   37.5772   57.7194 C   0  0  0  0  0  0  0  0  0  0  0  0
   33.0524   37.8771   56.5662 C   0  0  0  0  0  0  0  0  0  0  0  0
   34.4131   40.8297   57.4858 H   0  0  0  0  0  0  0  0  0  0  0  0
   33.1737   40.3180   59.5474 H   0  0  0  0  0  0  0  0  0  0  0  0
   29.4640   38.3035   63.6775 H   0  0  0  0  0  0  0  0  0  0  0  0
   30.4379   39.7767   63.4552 H   0  0  0  0  0  0  0  0  0  0  0  0
   30.5238   39.0434   66.0919 H   0  0  0  0  0  0  0  0  0  0  0  0
   32.1916   38.1824   67.6857 H   0  0  0  0  0  0  0  0  0  0  0  0
   34.0745   36.8160   66.8793 H   0  0  0  0  0  0  0  0  0  0  0  0
   34.2949   36.3184   64.4778 H   0  0  0  0  0  0  0  0  0  0  0  0
   32.6220   37.1717   62.8851 H   0  0  0  0  0  0  0  0  0  0  0  0
   31.7841   36.6642   57.7837 H   0  0  0  0  0  0  0  0  0  0  0  0
   33.0229   37.1977   55.7272 H   0  0  0  0  0  0  0  0  0  0  0  0
  1  2  1  0  0  0  0
  2 19  2  0  0  0  0
  2  3  1  0  0  0  0
  3  4  2  0  0  0  0
  3 20  1  0  0  0  0
  4  5  1  0  0  0  0
  4 21  1  0  0  0  0
  5  6  1  0  0  0  0
  5 18  2  0  0  0  0
  6 17  1  0  0  0  0
  6  7  2  0  0  0  0
  7  8  1  0  0  0  0
  8  9  2  0  0  0  0
  9 10  1  0  0  0  0
  9 17  1  0  0  0  0
 10 11  1  0  0  0  0
 10 22  1  0  0  0  0
 10 23  1  0  0  0  0
 11 16  2  0  0  0  0
 11 12  1  0  0  0  0
 12 13  2  0  0  0  0
 12 24  1  0  0  0  0
 13 14  1  0  0  0  0
 13 25  1  0  0  0  0
 14 15  2  0  0  0  0
 14 26  1  0  0  0  0
 15 16  1  0  0  0  0
 15 27  1  0  0  0  0
 16 28  1  0  0  0  0
 18 19  1  0  0  0  0
 18 29  1  0  0  0  0
 19 30  1  0  0  0  0
M  END
$$$$
