ZINC000000031211      none
 OpenBabel11202420163D

 22 23  0  0  0  0  0  0  0  0999 V2000
   29.6271   33.2906   64.0809 N   0  0  0  0  0  0  0  0  0  0  0  0
   30.0737   33.9863   63.3017 C   0  0  0  0  0  0  0  0  0  0  0  0
   30.6366   34.8633   62.3196 C   0  0  0  0  0  0  0  0  0  0  0  0
   31.5285   34.3740   61.3588 C   0  0  0  0  0  0  0  0  0  0  0  0
   31.9128   32.9169   61.3416 C   0  0  0  0  0  0  0  0  0  0  0  0
   31.2538   32.2486   62.3792 F   0  0  0  0  0  0  0  0  0  0  0  0
   31.5452   32.3521   60.1156 F   0  0  0  0  0  0  0  0  0  0  0  0
   33.2959   32.7974   61.5142 F   0  0  0  0  0  0  0  0  0  0  0  0
   32.0538   35.2537   60.4219 C   0  0  0  0  0  0  0  0  0  0  0  0
   31.6907   36.5903   60.4517 C   0  0  0  0  0  0  0  0  0  0  0  0
   32.2490   37.5105   59.4617 C   0  0  0  0  0  0  0  0  0  0  0  0
   32.6272   37.1748   58.1894 C   0  0  0  0  0  0  0  0  0  0  0  0
   33.1156   38.2395   57.4698 C   0  0  0  0  0  0  0  0  0  0  0  0
   33.1430   39.4048   58.1275 C   0  0  0  0  0  0  0  0  0  0  0  0
   32.5457   39.2250   59.7154 S   0  0  0  0  0  0  0  0  0  0  0  0
   30.8361   37.0562   61.3817 O   0  0  0  0  0  0  0  0  0  0  0  0
   30.2984   36.2383   62.3059 C   0  0  0  0  0  0  0  0  0  0  0  0
   29.2099   36.8626   63.4705 S   0  0  0  0  0  0  0  0  0  0  0  0
   32.7443   34.8971   59.6720 H   0  0  0  0  0  0  0  0  0  0  0  0
   32.5456   36.1748   57.7895 H   0  0  0  0  0  0  0  0  0  0  0  0
   33.4531   38.1427   56.4486 H   0  0  0  0  0  0  0  0  0  0  0  0
   33.4966   40.3354   57.7087 H   0  0  0  0  0  0  0  0  0  0  0  0
  1  2  3  0  0  0  0
  2  3  1  0  0  0  0
  3 17  1  0  0  0  0
  3  4  2  0  0  0  0
  4  5  1  0  0  0  0
  4  9  1  0  0  0  0
  5  6  1  0  0  0  0
  5  7  1  0  0  0  0
  5  8  1  0  0  0  0
  9 10  2  0  0  0  0
  9 19  1  0  0  0  0
 10 11  1  0  0  0  0
 10 16  1  0  0  0  0
 11 15  1  0  0  0  0
 11 12  2  0  0  0  0
 12 13  1  0  0  0  0
 12 20  1  0  0  0  0
 13 14  2  0  0  0  0
 13 21  1  0  0  0  0
 14 15  1  0  0  0  0
 14 22  1  0  0  0  0
 16 17  1  0  0  0  0
 17 18  2  0  0  0  0
M  END
$$$$
