ZINC000000036434      none
 OpenBabel11202420153D

 26 28  0  0  0  0  0  0  0  0999 V2000
   32.8181   36.9709   65.2180 C   0  0  0  0  0  0  0  0  0  0  0  0
   31.9737   37.7811   64.2685 C   0  0  0  0  0  0  0  0  0  0  0  0
   31.0399   38.6339   64.5978 N   0  0  0  0  0  0  0  0  0  0  0  0
   30.5200   39.1479   63.5390 N   0  0  0  0  0  0  0  0  0  0  0  0
   31.0997   38.6460   62.4715 C   0  0  0  0  0  0  0  0  0  0  0  0
   31.1534   38.6398   61.0975 N   0  0  0  0  0  0  0  0  0  0  0  0
   30.6003   39.1700   60.5026 H   0  0  0  0  0  0  0  0  0  0  0  0
   32.1300   37.7492   60.7150 C   0  0  0  0  0  0  0  0  0  0  0  0
   32.5119   37.4405   59.3190 C   0  0  0  0  0  0  0  0  0  0  0  0
   32.9814   38.4525   58.4813 C   0  0  0  0  0  0  0  0  0  0  0  0
   33.3400   38.1584   57.1824 C   0  0  0  0  0  0  0  0  0  0  0  0
   33.8431   39.2306   56.2945 N   0  0  0  0  0  0  0  0  0  0  0  0
   33.9400   40.3709   56.7113 O   0  0  0  0  0  0  0  0  0  0  0  0
   34.1600   38.9723   55.1471 O   0  0  0  0  0  0  0  0  0  0  0  0
   33.2260   36.8631   56.7055 C   0  0  0  0  0  0  0  0  0  0  0  0
   33.6738   36.5022   55.0675 Cl  0  0  0  0  0  0  0  0  0  0  0  0
   32.7560   35.8552   57.5296 C   0  0  0  0  0  0  0  0  0  0  0  0
   32.3984   36.1367   58.8335 C   0  0  0  0  0  0  0  0  0  0  0  0
   31.8095   34.8719   59.8666 Cl  0  0  0  0  0  0  0  0  0  0  0  0
   32.6655   37.2204   61.7814 N   0  0  0  0  0  0  0  0  0  0  0  0
   32.0465   37.7644   62.9086 N   0  0  0  0  0  0  0  0  0  0  0  0
   32.3247   36.0209   65.4231 H   0  0  0  0  0  0  0  0  0  0  0  0
   33.7933   36.7843   64.7681 H   0  0  0  0  0  0  0  0  0  0  0  0
   32.9475   37.5218   66.1497 H   0  0  0  0  0  0  0  0  0  0  0  0
   33.0674   39.4639   58.8505 H   0  0  0  0  0  0  0  0  0  0  0  0
   32.6684   34.8470   57.1522 H   0  0  0  0  0  0  0  0  0  0  0  0
  1  2  1  0  0  0  0
  1 22  1  0  0  0  0
  1 23  1  0  0  0  0
  1 24  1  0  0  0  0
  2 21  1  0  0  0  0
  2  3  2  0  0  0  0
  3  4  1  0  0  0  0
  4  5  2  0  0  0  0
  5 21  1  0  0  0  0
  5  6  1  0  0  0  0
  6  7  1  0  0  0  0
  6  8  1  0  0  0  0
  8  9  1  0  0  0  0
  8 20  2  0  0  0  0
  9 18  2  0  0  0  0
  9 10  1  0  0  0  0
 10 11  2  0  0  0  0
 10 25  1  0  0  0  0
 11 12  1  0  0  0  0
 11 15  1  0  0  0  0
 12 13  2  0  0  0  0
 12 14  2  0  0  0  0
 15 16  1  0  0  0  0
 15 17  2  0  0  0  0
 17 18  1  0  0  0  0
 17 26  1  0  0  0  0
 18 19  1  0  0  0  0
 20 21  1  0  0  0  0
M  END
$$$$
