ZINC000000020586      none
 OpenBabel11202420153D

 34 36  0  0  0  0  0  0  0  0999 V2000
   30.3382   34.7096   63.9353 C   0  0  0  0  0  0  0  0  0  0  0  0
   30.8782   35.7824   63.0250 C   0  0  0  0  0  0  0  0  0  0  0  0
   30.9877   36.9210   63.4281 O   0  0  0  0  0  0  0  0  0  0  0  0
   31.2397   35.4765   61.7634 N   0  0  0  0  0  0  0  0  0  0  0  0
   31.7648   36.5194   60.8785 C   0  0  0  0  0  0  0  0  0  0  0  0
   32.0958   35.9115   59.5140 C   0  0  0  0  0  0  0  0  0  0  0  0
   32.6360   36.9843   58.6038 C   0  0  0  0  0  0  0  0  0  0  0  0
   32.7655   38.2648   59.0557 C   0  0  0  0  0  0  0  0  0  0  0  0
   33.2677   39.2659   58.2301 C   0  0  0  0  0  0  0  0  0  0  0  0
   33.6430   38.9942   56.9487 C   0  0  0  0  0  0  0  0  0  0  0  0
   33.5233   37.6875   56.4509 C   0  0  0  0  0  0  0  0  0  0  0  0
   33.9015   37.3695   55.1320 C   0  0  0  0  0  0  0  0  0  0  0  0
   33.7851   36.1063   54.6542 C   0  0  0  0  0  0  0  0  0  0  0  0
   33.2866   35.0641   55.4449 C   0  0  0  0  0  0  0  0  0  0  0  0
   33.0762   33.7526   55.2118 O   0  0  0  0  0  0  0  0  0  0  0  0
   32.5725   33.1472   56.3000 C   0  0  0  0  0  0  0  0  0  0  0  0
   32.4311   34.0388   57.2949 C   0  0  0  0  0  0  0  0  0  0  0  0
   32.8948   35.3183   56.7623 C   0  0  0  0  0  0  0  0  0  0  0  0
   33.0119   36.6702   57.2939 C   0  0  0  0  0  0  0  0  0  0  0  0
   31.1616   34.2450   64.4778 H   0  0  0  0  0  0  0  0  0  0  0  0
   29.6398   35.1530   64.6451 H   0  0  0  0  0  0  0  0  0  0  0  0
   29.8226   33.9550   63.3414 H   0  0  0  0  0  0  0  0  0  0  0  0
   31.1522   34.5658   61.4409 H   0  0  0  0  0  0  0  0  0  0  0  0
   32.6681   36.9454   61.3151 H   0  0  0  0  0  0  0  0  0  0  0  0
   31.0166   37.3023   60.7556 H   0  0  0  0  0  0  0  0  0  0  0  0
   31.1925   35.4855   59.0773 H   0  0  0  0  0  0  0  0  0  0  0  0
   32.8440   35.1286   59.6368 H   0  0  0  0  0  0  0  0  0  0  0  0
   32.4747   38.5046   60.0678 H   0  0  0  0  0  0  0  0  0  0  0  0
   33.3610   40.2725   58.6102 H   0  0  0  0  0  0  0  0  0  0  0  0
   34.0306   39.7812   56.3186 H   0  0  0  0  0  0  0  0  0  0  0  0
   34.2910   38.1457   54.4900 H   0  0  0  0  0  0  0  0  0  0  0  0
   34.0849   35.8984   53.6376 H   0  0  0  0  0  0  0  0  0  0  0  0
   32.3190   32.0994   56.3653 H   0  0  0  0  0  0  0  0  0  0  0  0
   32.0508   33.8486   58.2877 H   0  0  0  0  0  0  0  0  0  0  0  0
  1  2  1  0  0  0  0
  1 20  1  0  0  0  0
  1 21  1  0  0  0  0
  1 22  1  0  0  0  0
  2  3  2  0  0  0  0
  2  4  1  0  0  0  0
  4  5  1  0  0  0  0
  4 23  1  0  0  0  0
  5  6  1  0  0  0  0
  5 24  1  0  0  0  0
  5 25  1  0  0  0  0
  6  7  1  0  0  0  0
  6 26  1  0  0  0  0
  6 27  1  0  0  0  0
  7 19  2  0  0  0  0
  7  8  1  0  0  0  0
  8  9  2  0  0  0  0
  8 28  1  0  0  0  0
  9 10  1  0  0  0  0
  9 29  1  0  0  0  0
 10 11  2  0  0  0  0
 10 30  1  0  0  0  0
 11 19  1  0  0  0  0
 11 12  1  0  0  0  0
 12 13  2  0  0  0  0
 12 31  1  0  0  0  0
 13 14  1  0  0  0  0
 13 32  1  0  0  0  0
 14 18  2  0  0  0  0
 14 15  1  0  0  0  0
 15 16  1  0  0  0  0
 16 17  2  0  0  0  0
 16 33  1  0  0  0  0
 17 18  1  0  0  0  0
 17 34  1  0  0  0  0
 18 19  1  0  0  0  0
M  END
$$$$
