ZINC000000033702      none
 OpenBabel11202420153D

 36 38  0  0  0  0  0  0  0  0999 V2000
   31.2040   34.2686   63.8940 C   0  0  0  0  0  0  0  0  0  0  0  0
   30.8214   35.5943   63.4016 N   0  0  0  0  0  0  0  0  0  0  0  0
   30.7616   35.8273   62.0437 C   0  0  0  0  0  0  0  0  0  0  0  0
   30.3988   37.0626   61.6007 C   0  0  0  0  0  0  0  0  0  0  0  0
   30.0985   38.0676   62.5373 C   0  0  0  0  0  0  0  0  0  0  0  0
   29.7703   39.1790   62.1584 O   0  0  0  0  0  0  0  0  0  0  0  0
   30.1792   37.7989   63.8543 N   0  0  0  0  0  0  0  0  0  0  0  0
   29.8746   38.8469   64.8317 C   0  0  0  0  0  0  0  0  0  0  0  0
   30.5324   36.5716   64.2776 C   0  0  0  0  0  0  0  0  0  0  0  0
   30.5915   36.3435   65.4705 O   0  0  0  0  0  0  0  0  0  0  0  0
   30.3026   37.3813   60.1314 C   0  0  0  0  0  0  0  0  0  0  0  0
   30.9804   36.3309   59.3573 N   0  0  0  0  0  0  0  0  0  0  0  0
   32.4400   36.4735   59.4418 C   0  0  0  0  0  0  0  0  0  0  0  0
   32.8964   37.5441   58.4844 C   0  0  0  0  0  0  0  0  0  0  0  0
   33.0104   38.8545   58.7659 C   0  0  0  0  0  0  0  0  0  0  0  0
   33.4701   39.4879   57.5884 C   0  0  0  0  0  0  0  0  0  0  0  0
   33.6016   38.5279   56.6554 C   0  0  0  0  0  0  0  0  0  0  0  0
   33.2528   37.3525   57.2038 O   0  0  0  0  0  0  0  0  0  0  0  0
   30.5506   35.0081   59.8406 C   0  0  0  0  0  0  0  0  0  0  0  0
   31.0778   34.8039   61.1925 N   0  0  0  0  0  0  0  0  0  0  0  0
   31.1975   34.2701   64.9840 H   0  0  0  0  0  0  0  0  0  0  0  0
   30.4950   33.5263   63.5274 H   0  0  0  0  0  0  0  0  0  0  0  0
   32.2042   34.0231   63.5369 H   0  0  0  0  0  0  0  0  0  0  0  0
   29.9877   38.4478   65.8396 H   0  0  0  0  0  0  0  0  0  0  0  0
   28.8497   39.1896   64.6895 H   0  0  0  0  0  0  0  0  0  0  0  0
   30.5598   39.6831   64.6931 H   0  0  0  0  0  0  0  0  0  0  0  0
   30.7795   38.3417   59.9358 H   0  0  0  0  0  0  0  0  0  0  0  0
   29.2540   37.4296   59.8379 H   0  0  0  0  0  0  0  0  0  0  0  0
   32.7197   36.7516   60.4580 H   0  0  0  0  0  0  0  0  0  0  0  0
   32.9133   35.5269   59.1808 H   0  0  0  0  0  0  0  0  0  0  0  0
   32.7945   39.3310   59.7107 H   0  0  0  0  0  0  0  0  0  0  0  0
   33.6727   40.5411   57.4612 H   0  0  0  0  0  0  0  0  0  0  0  0
   33.9315   38.6769   55.6379 H   0  0  0  0  0  0  0  0  0  0  0  0
   30.9362   34.2340   59.1773 H   0  0  0  0  0  0  0  0  0  0  0  0
   29.4617   34.9635   59.8627 H   0  0  0  0  0  0  0  0  0  0  0  0
   32.0740   34.6454   61.1719 H   0  0  0  0  0  0  0  0  0  0  0  0
  1  2  1  0  0  0  0
  1 21  1  0  0  0  0
  1 22  1  0  0  0  0
  1 23  1  0  0  0  0
  2  9  1  0  0  0  0
  2  3  1  0  0  0  0
  3 20  1  0  0  0  0
  3  4  2  0  0  0  0
  4  5  1  0  0  0  0
  4 11  1  0  0  0  0
  5  6  2  0  0  0  0
  5  7  1  0  0  0  0
  7  8  1  0  0  0  0
  7  9  1  0  0  0  0
  8 24  1  0  0  0  0
  8 25  1  0  0  0  0
  8 26  1  0  0  0  0
  9 10  2  0  0  0  0
 11 12  1  0  0  0  0
 11 27  1  0  0  0  0
 11 28  1  0  0  0  0
 12 13  1  0  0  0  0
 12 19  1  0  0  0  0
 13 14  1  0  0  0  0
 13 29  1  0  0  0  0
 13 30  1  0  0  0  0
 14 18  1  0  0  0  0
 14 15  2  0  0  0  0
 15 16  1  0  0  0  0
 15 31  1  0  0  0  0
 16 17  2  0  0  0  0
 16 32  1  0  0  0  0
 17 18  1  0  0  0  0
 17 33  1  0  0  0  0
 19 20  1  0  0  0  0
 19 34  1  0  0  0  0
 19 35  1  0  0  0  0
 20 36  1  0  0  0  0
M  END
$$$$
