ZINC000000042304      none
 OpenBabel11202420153D

 36 37  0  0  0  0  0  0  0  0999 V2000
   29.0917   38.1617   62.7929 C   0  0  0  0  0  0  0  0  0  0  0  0
   30.0526   37.9347   63.9314 C   0  0  0  0  0  0  0  0  0  0  0  0
   29.7016   38.1422   65.0682 O   0  0  0  0  0  0  0  0  0  0  0  0
   31.4513   37.4489   63.6515 C   0  0  0  0  0  0  0  0  0  0  0  0
   31.4486   36.6433   62.4712 O   0  0  0  0  0  0  0  0  0  0  0  0
   31.2398   35.3098   62.6343 C   0  0  0  0  0  0  0  0  0  0  0  0
   30.4633   34.8521   63.6870 C   0  0  0  0  0  0  0  0  0  0  0  0
   30.2525   33.4959   63.8518 C   0  0  0  0  0  0  0  0  0  0  0  0
   30.8147   32.5932   62.9681 C   0  0  0  0  0  0  0  0  0  0  0  0
   31.5905   33.0427   61.9162 C   0  0  0  0  0  0  0  0  0  0  0  0
   31.8061   34.4011   61.7452 C   0  0  0  0  0  0  0  0  0  0  0  0
   32.5695   34.8451   60.7112 O   0  0  0  0  0  0  0  0  0  0  0  0
   31.9351   35.1131   59.5535 C   0  0  0  0  0  0  0  0  0  0  0  0
   30.9324   34.4962   59.2533 O   0  0  0  0  0  0  0  0  0  0  0  0
   32.4585   36.1571   58.6490 C   0  0  0  0  0  0  0  0  0  0  0  0
   32.8469   35.8283   57.3488 C   0  0  0  0  0  0  0  0  0  0  0  0
   33.3305   36.8091   56.5079 C   0  0  0  0  0  0  0  0  0  0  0  0
   33.4404   38.1144   56.9536 C   0  0  0  0  0  0  0  0  0  0  0  0
   33.9650   39.1606   56.0475 N   0  0  0  0  0  0  0  0  0  0  0  0
   34.2987   38.8716   54.9123 O   0  0  0  0  0  0  0  0  0  0  0  0
   34.0631   40.3106   56.4370 O   0  0  0  0  0  0  0  0  0  0  0  0
   33.0627   38.4462   58.2427 C   0  0  0  0  0  0  0  0  0  0  0  0
   32.5726   37.4763   59.0924 C   0  0  0  0  0  0  0  0  0  0  0  0
   28.5378   37.2437   62.5965 H   0  0  0  0  0  0  0  0  0  0  0  0
   28.3949   38.9566   63.0584 H   0  0  0  0  0  0  0  0  0  0  0  0
   29.6474   38.4489   61.9003 H   0  0  0  0  0  0  0  0  0  0  0  0
   31.8056   36.8563   64.4949 H   0  0  0  0  0  0  0  0  0  0  0  0
   32.1108   38.3044   63.5060 H   0  0  0  0  0  0  0  0  0  0  0  0
   30.0227   35.5550   64.3785 H   0  0  0  0  0  0  0  0  0  0  0  0
   29.6434   33.1409   64.6700 H   0  0  0  0  0  0  0  0  0  0  0  0
   30.6475   31.5345   63.1002 H   0  0  0  0  0  0  0  0  0  0  0  0
   32.0285   32.3356   61.2275 H   0  0  0  0  0  0  0  0  0  0  0  0
   32.7655   34.8091   57.0010 H   0  0  0  0  0  0  0  0  0  0  0  0
   33.6277   36.5569   55.5007 H   0  0  0  0  0  0  0  0  0  0  0  0
   33.1515   39.4668   58.5844 H   0  0  0  0  0  0  0  0  0  0  0  0
   32.2782   37.7365   60.0984 H   0  0  0  0  0  0  0  0  0  0  0  0
  1  2  1  0  0  0  0
  1 24  1  0  0  0  0
  1 25  1  0  0  0  0
  1 26  1  0  0  0  0
  2  3  2  0  0  0  0
  2  4  1  0  0  0  0
  4  5  1  0  0  0  0
  4 27  1  0  0  0  0
  4 28  1  0  0  0  0
  5  6  1  0  0  0  0
  6 11  2  0  0  0  0
  6  7  1  0  0  0  0
  7  8  2  0  0  0  0
  7 29  1  0  0  0  0
  8  9  1  0  0  0  0
  8 30  1  0  0  0  0
  9 10  2  0  0  0  0
  9 31  1  0  0  0  0
 10 11  1  0  0  0  0
 10 32  1  0  0  0  0
 11 12  1  0  0  0  0
 12 13  1  0  0  0  0
 13 14  2  0  0  0  0
 13 15  1  0  0  0  0
 15 23  2  0  0  0  0
 15 16  1  0  0  0  0
 16 17  2  0  0  0  0
 16 33  1  0  0  0  0
 17 18  1  0  0  0  0
 17 34  1  0  0  0  0
 18 19  1  0  0  0  0
 18 22  2  0  0  0  0
 19 20  2  0  0  0  0
 19 21  2  0  0  0  0
 22 23  1  0  0  0  0
 22 35  1  0  0  0  0
 23 36  1  0  0  0  0
M  END
$$$$
