ZINC000000052528      none
 OpenBabel11202420153D

 36 38  0  0  0  0  0  0  0  0999 V2000
   30.4992   38.0417   63.4859 C   0  0  0  0  0  0  0  0  0  0  0  0
   31.0865   36.7061   63.0254 C   0  0  0  0  0  0  0  0  0  0  0  0
   31.5661   35.9107   64.2411 C   0  0  0  0  0  0  0  0  0  0  0  0
   30.0158   35.9052   62.2780 C   0  0  0  0  0  0  0  0  0  0  0  0
   29.6094   36.6615   61.0395 C   0  0  0  0  0  0  0  0  0  0  0  0
   28.4854   36.5311   60.5960 O   0  0  0  0  0  0  0  0  0  0  0  0
   30.5137   37.5115   60.3962 C   0  0  0  0  0  0  0  0  0  0  0  0
   31.7733   37.6849   60.8534 C   0  0  0  0  0  0  0  0  0  0  0  0
   32.6151   38.5294   60.1929 N   0  0  0  0  0  0  0  0  0  0  0  0
   32.9372   38.2892   58.8527 C   0  0  0  0  0  0  0  0  0  0  0  0
   32.9630   36.9882   58.3670 C   0  0  0  0  0  0  0  0  0  0  0  0
   33.2764   36.7499   57.0427 C   0  0  0  0  0  0  0  0  0  0  0  0
   33.5758   37.8067   56.1980 C   0  0  0  0  0  0  0  0  0  0  0  0
   33.5505   39.1127   56.6820 C   0  0  0  0  0  0  0  0  0  0  0  0
   33.2315   39.3512   58.0081 C   0  0  0  0  0  0  0  0  0  0  0  0
   33.8731   39.9620   55.6630 O   0  0  0  0  0  0  0  0  0  0  0  0
   34.4938   39.1388   54.6579 C   0  0  0  0  0  0  0  0  0  0  0  0
   33.9145   37.8387   54.8750 O   0  0  0  0  0  0  0  0  0  0  0  0
   32.2653   36.9573   62.0760 C   0  0  0  0  0  0  0  0  0  0  0  0
   29.6548   37.8577   64.1501 H   0  0  0  0  0  0  0  0  0  0  0  0
   31.2624   38.6102   64.0176 H   0  0  0  0  0  0  0  0  0  0  0  0
   30.1621   38.6089   62.6183 H   0  0  0  0  0  0  0  0  0  0  0  0
   31.9882   34.9615   63.9109 H   0  0  0  0  0  0  0  0  0  0  0  0
   32.3279   36.4819   64.7718 H   0  0  0  0  0  0  0  0  0  0  0  0
   30.7241   35.7217   64.9070 H   0  0  0  0  0  0  0  0  0  0  0  0
   29.1474   35.7675   62.9223 H   0  0  0  0  0  0  0  0  0  0  0  0
   30.4191   34.9328   61.9951 H   0  0  0  0  0  0  0  0  0  0  0  0
   30.1975   38.0435   59.5112 H   0  0  0  0  0  0  0  0  0  0  0  0
   32.9908   39.2967   60.6521 H   0  0  0  0  0  0  0  0  0  0  0  0
   32.7340   36.1623   59.0242 H   0  0  0  0  0  0  0  0  0  0  0  0
   33.2911   35.7378   56.6659 H   0  0  0  0  0  0  0  0  0  0  0  0
   33.2111   40.3630   58.3853 H   0  0  0  0  0  0  0  0  0  0  0  0
   35.5736   39.1059   54.8030 H   0  0  0  0  0  0  0  0  0  0  0  0
   34.2513   39.5045   53.6602 H   0  0  0  0  0  0  0  0  0  0  0  0
   32.7068   36.0059   61.7795 H   0  0  0  0  0  0  0  0  0  0  0  0
   33.0157   37.5641   62.5826 H   0  0  0  0  0  0  0  0  0  0  0  0
  1  2  1  0  0  0  0
  1 20  1  0  0  0  0
  1 21  1  0  0  0  0
  1 22  1  0  0  0  0
  2 19  1  0  0  0  0
  2  3  1  0  0  0  0
  2  4  1  0  0  0  0
  3 23  1  0  0  0  0
  3 24  1  0  0  0  0
  3 25  1  0  0  0  0
  4  5  1  0  0  0  0
  4 26  1  0  0  0  0
  4 27  1  0  0  0  0
  5  6  2  0  0  0  0
  5  7  1  0  0  0  0
  7  8  2  0  0  0  0
  7 28  1  0  0  0  0
  8  9  1  0  0  0  0
  8 19  1  0  0  0  0
  9 10  1  0  0  0  0
  9 29  1  0  0  0  0
 10 15  2  0  0  0  0
 10 11  1  0  0  0  0
 11 12  2  0  0  0  0
 11 30  1  0  0  0  0
 12 13  1  0  0  0  0
 12 31  1  0  0  0  0
 13 18  1  0  0  0  0
 13 14  2  0  0  0  0
 14 15  1  0  0  0  0
 14 16  1  0  0  0  0
 15 32  1  0  0  0  0
 16 17  1  0  0  0  0
 17 18  1  0  0  0  0
 17 33  1  0  0  0  0
 17 34  1  0  0  0  0
 19 35  1  0  0  0  0
 19 36  1  0  0  0  0
M  END
$$$$
