ZINC000000054633      none
 OpenBabel11202420153D

 26 28  0  0  1  0  0  0  0  0999 V2000
   32.7959   33.4859   59.3471 O   0  0  0  0  0  0  0  0  0  0  0  0
   32.2536   34.1541   58.2062 C   0  0  1  0  0  0  0  0  0  0  0  0
   31.1919   33.9233   58.1205 H   0  0  0  0  0  0  0  0  0  0  0  0
   32.4331   35.6421   58.3631 C   0  0  0  0  0  0  0  0  0  0  0  0
   31.8604   36.2965   59.4379 C   0  0  0  0  0  0  0  0  0  0  0  0
   32.0179   37.6621   59.5834 C   0  0  0  0  0  0  0  0  0  0  0  0
   32.7502   38.3788   58.6509 C   0  0  0  0  0  0  0  0  0  0  0  0
   33.3272   37.7197   57.5682 C   0  0  0  0  0  0  0  0  0  0  0  0
   33.1653   36.3508   57.4289 C   0  0  0  0  0  0  0  0  0  0  0  0
   33.9886   38.6356   56.8020 O   0  0  0  0  0  0  0  0  0  0  0  0
   33.4699   39.9178   57.2019 C   0  0  0  0  0  0  0  0  0  0  0  0
   33.0503   39.7075   58.5631 O   0  0  0  0  0  0  0  0  0  0  0  0
   32.9704   33.6899   56.9645 C   0  0  0  0  0  0  0  0  0  0  0  0
   34.2395   33.2823   56.9162 C   0  0  0  0  0  0  0  0  0  0  0  0
   34.6816   32.8986   55.6617 C   0  0  0  0  0  0  0  0  0  0  0  0
   33.7742   33.0030   54.6898 C   0  0  0  0  0  0  0  0  0  0  0  0
   32.2635   33.6097   55.3559 S   0  0  0  0  0  0  0  0  0  0  0  0
   32.7151   32.5229   59.3141 H   0  0  0  0  0  0  0  0  0  0  0  0
   31.2888   35.7394   60.1654 H   0  0  0  0  0  0  0  0  0  0  0  0
   31.5693   38.1707   60.4240 H   0  0  0  0  0  0  0  0  0  0  0  0
   33.6115   35.8371   56.5903 H   0  0  0  0  0  0  0  0  0  0  0  0
   32.6209   40.1987   56.5785 H   0  0  0  0  0  0  0  0  0  0  0  0
   34.2494   40.6781   57.1545 H   0  0  0  0  0  0  0  0  0  0  0  0
   34.8735   33.2517   57.7900 H   0  0  0  0  0  0  0  0  0  0  0  0
   35.6863   32.5451   55.4829 H   0  0  0  0  0  0  0  0  0  0  0  0
   33.9412   32.7529   53.6525 H   0  0  0  0  0  0  0  0  0  0  0  0
  1  2  1  0  0  0  0
  1 18  1  0  0  0  0
  2  3  1  6  0  0  0
  2  4  1  0  0  0  0
  2 13  1  0  0  0  0
  4  9  2  0  0  0  0
  4  5  1  0  0  0  0
  5  6  2  0  0  0  0
  5 19  1  0  0  0  0
  6  7  1  0  0  0  0
  6 20  1  0  0  0  0
  7 12  1  0  0  0  0
  7  8  2  0  0  0  0
  8  9  1  0  0  0  0
  8 10  1  0  0  0  0
  9 21  1  0  0  0  0
 10 11  1  0  0  0  0
 11 12  1  0  0  0  0
 11 22  1  0  0  0  0
 11 23  1  0  0  0  0
 13 17  1  0  0  0  0
 13 14  2  0  0  0  0
 14 15  1  0  0  0  0
 14 24  1  0  0  0  0
 15 16  2  0  0  0  0
 15 25  1  0  0  0  0
 16 17  1  0  0  0  0
 16 26  1  0  0  0  0
M  END
$$$$
