ZINC000000002980      none
 OpenBabel11202420153D

 29 31  0  0  0  0  0  0  0  0999 V2000
   35.8645   40.6408   51.7342 C   0  0  0  0  0  0  0  0  0  0  0  0
   35.5899   39.2905   52.1131 O   0  0  0  0  0  0  0  0  0  0  0  0
   34.9890   39.0972   53.3177 C   0  0  0  0  0  0  0  0  0  0  0  0
   34.6714   40.1925   54.1185 C   0  0  0  0  0  0  0  0  0  0  0  0
   34.0657   40.0063   55.3365 C   0  0  0  0  0  0  0  0  0  0  0  0
   33.7613   38.7126   55.7853 C   0  0  0  0  0  0  0  0  0  0  0  0
   33.0015   38.1828   57.2747 S   0  0  0  0  0  0  0  0  0  0  0  0
   33.1043   36.4778   56.8289 C   0  0  0  0  0  0  0  0  0  0  0  0
   33.6877   36.3362   55.6040 C   0  0  0  0  0  0  0  0  0  0  0  0
   34.0733   37.6154   54.9929 C   0  0  0  0  0  0  0  0  0  0  0  0
   34.6977   37.8220   53.7409 C   0  0  0  0  0  0  0  0  0  0  0  0
   33.9335   35.1489   54.9214 N   0  0  0  0  0  0  0  0  0  0  0  0
   32.9806   34.0913   55.1081 C   0  0  0  0  0  0  0  0  0  0  0  0
   33.1064   33.3857   56.4354 C   0  0  0  0  0  0  0  0  0  0  0  0
   32.5748   34.1597   57.5300 N   0  0  0  0  0  0  0  0  0  0  0  0
   32.6242   35.4591   57.6878 C   0  0  0  0  0  0  0  0  0  0  0  0
   32.1834   35.8580   58.7506 O   0  0  0  0  0  0  0  0  0  0  0  0
   36.5283   41.0964   52.4690 H   0  0  0  0  0  0  0  0  0  0  0  0
   36.3433   40.6531   50.7551 H   0  0  0  0  0  0  0  0  0  0  0  0
   34.9315   41.2025   51.6897 H   0  0  0  0  0  0  0  0  0  0  0  0
   34.9022   41.1916   53.7796 H   0  0  0  0  0  0  0  0  0  0  0  0
   33.8227   40.8598   55.9521 H   0  0  0  0  0  0  0  0  0  0  0  0
   34.9464   36.9767   53.1164 H   0  0  0  0  0  0  0  0  0  0  0  0
   34.8733   34.8227   55.0899 H   0  0  0  0  0  0  0  0  0  0  0  0
   33.1123   33.3595   54.3111 H   0  0  0  0  0  0  0  0  0  0  0  0
   31.9778   34.5115   55.0311 H   0  0  0  0  0  0  0  0  0  0  0  0
   34.1599   33.1821   56.6272 H   0  0  0  0  0  0  0  0  0  0  0  0
   32.5699   32.4384   56.3810 H   0  0  0  0  0  0  0  0  0  0  0  0
   32.1249   33.6601   58.2292 H   0  0  0  0  0  0  0  0  0  0  0  0
  1  2  1  0  0  0  0
  1 18  1  0  0  0  0
  1 19  1  0  0  0  0
  1 20  1  0  0  0  0
  2  3  1  0  0  0  0
  3 11  2  0  0  0  0
  3  4  1  0  0  0  0
  4  5  2  0  0  0  0
  4 21  1  0  0  0  0
  5  6  1  0  0  0  0
  5 22  1  0  0  0  0
  6 10  2  0  0  0  0
  6  7  1  0  0  0  0
  7  8  1  0  0  0  0
  8 16  1  0  0  0  0
  8  9  2  0  0  0  0
  9 10  1  0  0  0  0
  9 12  1  0  0  0  0
 10 11  1  0  0  0  0
 11 23  1  0  0  0  0
 12 13  1  0  0  0  0
 12 24  1  0  0  0  0
 13 14  1  0  0  0  0
 13 25  1  0  0  0  0
 13 26  1  0  0  0  0
 14 15  1  0  0  0  0
 14 27  1  0  0  0  0
 14 28  1  0  0  0  0
 15 16  1  0  0  0  0
 15 29  1  0  0  0  0
 16 17  2  0  0  0  0
M  END
$$$$
