ZINC000000058129      none
 OpenBabel11202420153D

 21 22  0  0  0  0  0  0  0  0999 V2000
   34.9019   38.6008   53.0352 C   0  0  0  0  0  0  0  0  0  0  0  0
   34.4597   38.8242   54.4584 C   0  0  0  0  0  0  0  0  0  0  0  0
   34.5012   39.9367   54.9387 O   0  0  0  0  0  0  0  0  0  0  0  0
   34.0181   37.7872   55.1974 N   0  0  0  0  0  0  0  0  0  0  0  0
   33.6136   37.9916   56.5000 C   0  0  0  0  0  0  0  0  0  0  0  0
   33.1869   36.9681   57.2025 N   0  0  0  0  0  0  0  0  0  0  0  0
   32.7847   37.1180   58.4701 C   0  0  0  0  0  0  0  0  0  0  0  0
   32.3039   36.2648   59.4260 N   0  0  0  0  0  0  0  0  0  0  0  0
   32.1627   35.3106   59.3245 H   0  0  0  0  0  0  0  0  0  0  0  0
   32.0595   37.0019   60.5479 C   0  0  0  0  0  0  0  0  0  0  0  0
   32.3673   38.2477   60.3326 N   0  0  0  0  0  0  0  0  0  0  0  0
   32.8173   38.3856   59.0623 C   0  0  0  0  0  0  0  0  0  0  0  0
   33.2793   39.4801   58.2932 C   0  0  0  0  0  0  0  0  0  0  0  0
   33.3247   40.6023   58.7674 O   0  0  0  0  0  0  0  0  0  0  0  0
   33.6691   39.2498   57.0197 N   0  0  0  0  0  0  0  0  0  0  0  0
   33.9897   39.9840   56.4729 H   0  0  0  0  0  0  0  0  0  0  0  0
   34.0709   38.1992   52.4553 H   0  0  0  0  0  0  0  0  0  0  0  0
   35.2232   39.5479   52.6017 H   0  0  0  0  0  0  0  0  0  0  0  0
   35.7313   37.8939   53.0190 H   0  0  0  0  0  0  0  0  0  0  0  0
   33.9849   36.8971   54.8133 H   0  0  0  0  0  0  0  0  0  0  0  0
   31.6726   36.6094   61.4766 H   0  0  0  0  0  0  0  0  0  0  0  0
  1  2  1  0  0  0  0
  1 17  1  0  0  0  0
  1 18  1  0  0  0  0
  1 19  1  0  0  0  0
  2  3  2  0  0  0  0
  2  4  1  0  0  0  0
  4  5  1  0  0  0  0
  4 20  1  0  0  0  0
  5 15  1  0  0  0  0
  5  6  2  0  0  0  0
  6  7  1  0  0  0  0
  7 12  2  0  0  0  0
  7  8  1  0  0  0  0
  8  9  1  0  0  0  0
  8 10  1  0  0  0  0
 10 11  2  0  0  0  0
 10 21  1  0  0  0  0
 11 12  1  0  0  0  0
 12 13  1  0  0  0  0
 13 14  2  0  0  0  0
 13 15  1  0  0  0  0
 15 16  1  0  0  0  0
M  END
$$$$
