ZINC000000047740      none
 OpenBabel11202420153D

 30 31  0  0  0  0  0  0  0  0999 V2000
   33.4159   35.8091   51.9221 C   0  0  0  0  0  0  0  0  0  0  0  0
   34.0926   36.8441   52.8232 C   0  0  0  0  0  0  0  0  0  0  0  0
   33.5611   36.7439   54.1460 O   0  0  0  0  0  0  0  0  0  0  0  0
   34.0554   37.5937   55.0709 C   0  0  0  0  0  0  0  0  0  0  0  0
   34.9149   38.3977   54.7609 O   0  0  0  0  0  0  0  0  0  0  0  0
   33.5742   37.5497   56.4014 C   0  0  0  0  0  0  0  0  0  0  0  0
   33.4950   38.6097   57.2915 C   0  0  0  0  0  0  0  0  0  0  0  0
   33.9099   40.0313   57.0117 C   0  0  0  0  0  0  0  0  0  0  0  0
   32.9923   38.1581   58.4285 N   0  0  0  0  0  0  0  0  0  0  0  0
   32.7392   36.8541   58.3245 C   0  0  0  0  0  0  0  0  0  0  0  0
   32.2095   35.9262   59.2390 C   0  0  0  0  0  0  0  0  0  0  0  0
   32.0546   34.6264   58.8590 C   0  0  0  0  0  0  0  0  0  0  0  0
   31.4892   33.6167   59.8245 C   0  0  0  0  0  0  0  0  0  0  0  0
   32.4247   34.2345   57.5653 C   0  0  0  0  0  0  0  0  0  0  0  0
   32.9328   35.1420   56.7004 C   0  0  0  0  0  0  0  0  0  0  0  0
   33.0905   36.4401   57.0715 N   0  0  0  0  0  0  0  0  0  0  0  0
   32.3423   35.9955   51.8973 H   0  0  0  0  0  0  0  0  0  0  0  0
   33.8213   35.8854   50.9132 H   0  0  0  0  0  0  0  0  0  0  0  0
   33.6022   34.8091   52.3139 H   0  0  0  0  0  0  0  0  0  0  0  0
   33.9063   37.8441   52.4314 H   0  0  0  0  0  0  0  0  0  0  0  0
   35.1662   36.6576   52.8480 H   0  0  0  0  0  0  0  0  0  0  0  0
   33.0618   40.5847   56.6088 H   0  0  0  0  0  0  0  0  0  0  0  0
   34.2439   40.5010   57.9368 H   0  0  0  0  0  0  0  0  0  0  0  0
   34.7242   40.0362   56.2872 H   0  0  0  0  0  0  0  0  0  0  0  0
   31.9240   36.2416   60.2317 H   0  0  0  0  0  0  0  0  0  0  0  0
   30.4045   33.5842   59.7224 H   0  0  0  0  0  0  0  0  0  0  0  0
   31.9044   32.6329   59.6057 H   0  0  0  0  0  0  0  0  0  0  0  0
   31.7498   33.9028   60.8434 H   0  0  0  0  0  0  0  0  0  0  0  0
   32.3043   33.2060   57.2585 H   0  0  0  0  0  0  0  0  0  0  0  0
   33.2163   34.8320   55.7053 H   0  0  0  0  0  0  0  0  0  0  0  0
  1  2  1  0  0  0  0
  1 17  1  0  0  0  0
  1 18  1  0  0  0  0
  1 19  1  0  0  0  0
  2  3  1  0  0  0  0
  2 20  1  0  0  0  0
  2 21  1  0  0  0  0
  3  4  1  0  0  0  0
  4  5  2  0  0  0  0
  4  6  1  0  0  0  0
  6 16  1  0  0  0  0
  6  7  2  0  0  0  0
  7  8  1  0  0  0  0
  7  9  1  0  0  0  0
  8 22  1  0  0  0  0
  8 23  1  0  0  0  0
  8 24  1  0  0  0  0
  9 10  2  0  0  0  0
 10 16  1  0  0  0  0
 10 11  1  0  0  0  0
 11 12  2  0  0  0  0
 11 25  1  0  0  0  0
 12 13  1  0  0  0  0
 12 14  1  0  0  0  0
 13 26  1  0  0  0  0
 13 27  1  0  0  0  0
 13 28  1  0  0  0  0
 14 15  2  0  0  0  0
 14 29  1  0  0  0  0
 15 16  1  0  0  0  0
 15 30  1  0  0  0  0
M  END
$$$$
