ZINC000000056540      none
 OpenBabel11202420153D

 35 36  0  0  0  0  0  0  0  0999 V2000
   34.6872   37.4214   52.7564 C   0  0  0  0  0  0  0  0  0  0  0  0
   35.0436   37.6702   54.2233 C   0  0  0  0  0  0  0  0  0  0  0  0
   33.8695   38.0581   54.9397 O   0  0  0  0  0  0  0  0  0  0  0  0
   33.4891   37.2656   55.9766 C   0  0  0  0  0  0  0  0  0  0  0  0
   33.4111   37.7950   57.2568 C   0  0  0  0  0  0  0  0  0  0  0  0
   33.0247   36.9904   58.3112 C   0  0  0  0  0  0  0  0  0  0  0  0
   32.7129   35.6424   58.0831 C   0  0  0  0  0  0  0  0  0  0  0  0
   32.7910   35.1139   56.7984 C   0  0  0  0  0  0  0  0  0  0  0  0
   33.1794   35.9270   55.7478 C   0  0  0  0  0  0  0  0  0  0  0  0
   33.2591   35.4174   54.4886 O   0  0  0  0  0  0  0  0  0  0  0  0
   32.9275   34.0371   54.3252 C   0  0  0  0  0  0  0  0  0  0  0  0
   32.3026   34.8108   59.2348 C   0  0  0  0  0  0  0  0  0  0  0  0
   31.9276   35.4297   60.3527 C   0  0  0  0  0  0  0  0  0  0  0  0
   31.9174   36.9342   60.4143 C   0  0  0  0  0  0  0  0  0  0  0  0
   30.5544   37.4491   59.9475 C   0  0  0  0  0  0  0  0  0  0  0  0
   32.1587   37.3817   61.8573 C   0  0  0  0  0  0  0  0  0  0  0  0
   32.9383   37.4777   59.5764 O   0  0  0  0  0  0  0  0  0  0  0  0
   35.5827   37.1256   52.2100 H   0  0  0  0  0  0  0  0  0  0  0  0
   33.9437   36.6267   52.6928 H   0  0  0  0  0  0  0  0  0  0  0  0
   34.2810   38.3346   52.3212 H   0  0  0  0  0  0  0  0  0  0  0  0
   35.7870   38.4648   54.2869 H   0  0  0  0  0  0  0  0  0  0  0  0
   35.4496   36.7571   54.6584 H   0  0  0  0  0  0  0  0  0  0  0  0
   33.6523   38.8337   57.4287 H   0  0  0  0  0  0  0  0  0  0  0  0
   32.5509   34.0758   56.6221 H   0  0  0  0  0  0  0  0  0  0  0  0
   33.5986   33.4280   54.9306 H   0  0  0  0  0  0  0  0  0  0  0  0
   31.8986   33.8704   54.6439 H   0  0  0  0  0  0  0  0  0  0  0  0
   33.0322   33.7601   53.2762 H   0  0  0  0  0  0  0  0  0  0  0  0
   32.3110   33.7327   59.1725 H   0  0  0  0  0  0  0  0  0  0  0  0
   31.6310   34.8521   61.2158 H   0  0  0  0  0  0  0  0  0  0  0  0
   29.7742   37.0517   60.5966 H   0  0  0  0  0  0  0  0  0  0  0  0
   30.5433   38.5382   59.9907 H   0  0  0  0  0  0  0  0  0  0  0  0
   30.3748   37.1243   58.9226 H   0  0  0  0  0  0  0  0  0  0  0  0
   33.1250   37.0088   62.1966 H   0  0  0  0  0  0  0  0  0  0  0  0
   32.1520   38.4707   61.9059 H   0  0  0  0  0  0  0  0  0  0  0  0
   31.3709   36.9847   62.4974 H   0  0  0  0  0  0  0  0  0  0  0  0
  1  2  1  0  0  0  0
  1 18  1  0  0  0  0
  1 19  1  0  0  0  0
  1 20  1  0  0  0  0
  2  3  1  0  0  0  0
  2 21  1  0  0  0  0
  2 22  1  0  0  0  0
  3  4  1  0  0  0  0
  4  9  2  0  0  0  0
  4  5  1  0  0  0  0
  5  6  2  0  0  0  0
  5 23  1  0  0  0  0
  6 17  1  0  0  0  0
  6  7  1  0  0  0  0
  7  8  2  0  0  0  0
  7 12  1  0  0  0  0
  8  9  1  0  0  0  0
  8 24  1  0  0  0  0
  9 10  1  0  0  0  0
 10 11  1  0  0  0  0
 11 25  1  0  0  0  0
 11 26  1  0  0  0  0
 11 27  1  0  0  0  0
 12 13  2  0  0  0  0
 12 28  1  0  0  0  0
 13 14  1  0  0  0  0
 13 29  1  0  0  0  0
 14 15  1  0  0  0  0
 14 16  1  0  0  0  0
 14 17  1  0  0  0  0
 15 30  1  0  0  0  0
 15 31  1  0  0  0  0
 15 32  1  0  0  0  0
 16 33  1  0  0  0  0
 16 34  1  0  0  0  0
 16 35  1  0  0  0  0
M  END
$$$$
