ZINC000000050047      none
 OpenBabel11202420153D

 43 45  0  0  1  0  0  0  0  0999 V2000
   27.5962   40.3758   67.4311 C   0  0  0  0  0  0  0  0  0  0  0  0
   29.0705   40.4498   67.0287 C   0  0  0  0  0  0  0  0  0  0  0  0
   29.2331   39.9126   65.7145 O   0  0  0  0  0  0  0  0  0  0  0  0
   29.4858   38.5892   65.6201 C   0  0  0  0  0  0  0  0  0  0  0  0
   29.5656   37.9109   66.6286 O   0  0  0  0  0  0  0  0  0  0  0  0
   29.6565   37.9956   64.3597 C   0  0  0  0  0  0  0  0  0  0  0  0
   29.0099   38.5078   63.2794 C   0  0  0  0  0  0  0  0  0  0  0  0
   28.2036   39.6023   63.4427 N   0  0  0  0  0  0  0  0  0  0  0  0
   29.1402   37.9689   62.0560 O   0  0  0  0  0  0  0  0  0  0  0  0
   30.1724   37.1560   61.7938 C   0  0  0  0  0  0  0  0  0  0  0  0
   30.5478   36.8956   60.3577 C   0  0  0  0  0  0  0  0  0  0  0  0
   30.8848   36.5644   62.7693 C   0  0  0  0  0  0  0  0  0  0  0  0
   31.9588   35.7201   62.4316 C   0  0  0  0  0  0  0  0  0  0  0  0
   31.7222   34.2464   62.2238 C   0  0  0  0  0  0  0  0  0  0  0  0
   33.0765   36.1792   62.3076 O   0  0  0  0  0  0  0  0  0  0  0  0
   30.5517   36.7988   64.2144 C   0  0  1  0  0  0  0  0  0  0  0  0
   31.8151   36.9867   65.0208 C   0  0  0  0  0  0  0  0  0  0  0  0
   32.6421   37.8616   64.8734 O   0  0  0  0  0  0  0  0  0  0  0  0
   31.8485   35.9992   65.9333 N   0  0  0  0  0  0  0  0  0  0  0  0
   30.7411   35.1550   65.8380 C   0  0  0  0  0  0  0  0  0  0  0  0
   30.3890   34.0278   66.5776 C   0  0  0  0  0  0  0  0  0  0  0  0
   29.2240   33.3472   66.2912 C   0  0  0  0  0  0  0  0  0  0  0  0
   28.3970   33.7764   65.2689 C   0  0  0  0  0  0  0  0  0  0  0  0
   28.7400   34.8947   64.5295 C   0  0  0  0  0  0  0  0  0  0  0  0
   29.9022   35.5766   64.8128 C   0  0  0  0  0  0  0  0  0  0  0  0
   26.9977   40.9527   66.7261 H   0  0  0  0  0  0  0  0  0  0  0  0
   27.2683   39.3362   67.4203 H   0  0  0  0  0  0  0  0  0  0  0  0
   27.4720   40.7855   68.4334 H   0  0  0  0  0  0  0  0  0  0  0  0
   29.6688   39.8727   67.7337 H   0  0  0  0  0  0  0  0  0  0  0  0
   29.3982   41.4893   67.0394 H   0  0  0  0  0  0  0  0  0  0  0  0
   28.4415   40.2882   64.0860 H   0  0  0  0  0  0  0  0  0  0  0  0
   27.3946   39.6917   62.9151 H   0  0  0  0  0  0  0  0  0  0  0  0
   30.0586   35.9842   60.0138 H   0  0  0  0  0  0  0  0  0  0  0  0
   30.2273   37.7349   59.7405 H   0  0  0  0  0  0  0  0  0  0  0  0
   31.6287   36.7794   60.2801 H   0  0  0  0  0  0  0  0  0  0  0  0
   30.6541   34.0378   62.2839 H   0  0  0  0  0  0  0  0  0  0  0  0
   32.0948   33.9534   61.2423 H   0  0  0  0  0  0  0  0  0  0  0  0
   32.2466   33.6819   62.9949 H   0  0  0  0  0  0  0  0  0  0  0  0
   32.5600   35.8869   66.5829 H   0  0  0  0  0  0  0  0  0  0  0  0
   31.0296   33.6866   67.3772 H   0  0  0  0  0  0  0  0  0  0  0  0
   28.9563   32.4742   66.8679 H   0  0  0  0  0  0  0  0  0  0  0  0
   27.4858   33.2403   65.0485 H   0  0  0  0  0  0  0  0  0  0  0  0
   28.0964   35.2327   63.7308 H   0  0  0  0  0  0  0  0  0  0  0  0
  1  2  1  0  0  0  0
  1 26  1  0  0  0  0
  1 27  1  0  0  0  0
  1 28  1  0  0  0  0
  2  3  1  0  0  0  0
  2 29  1  0  0  0  0
  2 30  1  0  0  0  0
  3  4  1  0  0  0  0
  4  5  2  0  0  0  0
  4  6  1  0  0  0  0
  6  7  2  0  0  0  0
  7  8  1  0  0  0  0
  7  9  1  0  0  0  0
  8 31  1  0  0  0  0
  8 32  1  0  0  0  0
  9 10  1  0  0  0  0
 10 11  1  0  0  0  0
 10 12  2  0  0  0  0
 11 33  1  0  0  0  0
 11 34  1  0  0  0  0
 11 35  1  0  0  0  0
 12 13  1  0  0  0  0
 12 16  1  0  0  0  0
 13 14  1  0  0  0  0
 13 15  2  0  0  0  0
 14 36  1  0  0  0  0
 14 37  1  0  0  0  0
 14 38  1  0  0  0  0
 16  6  1  1  0  0  0
 16 25  1  0  0  0  0
 16 17  1  0  0  0  0
 17 18  2  0  0  0  0
 17 19  1  0  0  0  0
 19 20  1  0  0  0  0
 19 39  1  0  0  0  0
 20 25  2  0  0  0  0
 20 21  1  0  0  0  0
 21 22  2  0  0  0  0
 21 40  1  0  0  0  0
 22 23  1  0  0  0  0
 22 41  1  0  0  0  0
 23 24  2  0  0  0  0
 23 42  1  0  0  0  0
 24 25  1  0  0  0  0
 24 43  1  0  0  0  0
M  END
$$$$
