ZINC000000001385      none
 OpenBabel11202420153D

 25 25  0  0  0  0  0  0  0  0999 V2000
   31.7093   33.8682   61.8949 C   0  0  0  0  0  0  0  0  0  0  0  0
   31.2861   34.9350   62.1419 C   0  0  0  0  0  0  0  0  0  0  0  0
   30.7556   36.2727   62.4517 C   0  0  0  0  0  0  0  0  0  0  0  0
   30.2702   36.2959   63.8200 O   0  0  0  0  0  0  0  0  0  0  0  0
   31.1641   36.0277   64.7904 C   0  0  0  0  0  0  0  0  0  0  0  0
   30.7788   36.0328   66.0819 N   0  0  0  0  0  0  0  0  0  0  0  0
   32.3183   35.7809   64.5018 O   0  0  0  0  0  0  0  0  0  0  0  0
   29.6055   36.5989   61.4969 C   0  0  0  0  0  0  0  0  0  0  0  0
   30.1169   36.5744   60.0551 C   0  0  0  0  0  0  0  0  0  0  0  0
   31.2272   37.6142   59.8902 C   0  0  0  0  0  0  0  0  0  0  0  0
   32.3773   37.2880   60.8450 C   0  0  0  0  0  0  0  0  0  0  0  0
   31.8658   37.3124   62.2868 C   0  0  0  0  0  0  0  0  0  0  0  0
   32.0876   32.9139   61.6739 H   0  0  0  0  0  0  0  0  0  0  0  0
   29.8574   36.2298   66.3122 H   0  0  0  0  0  0  0  0  0  0  0  0
   31.4228   35.8395   66.7809 H   0  0  0  0  0  0  0  0  0  0  0  0
   29.2126   37.5894   61.7263 H   0  0  0  0  0  0  0  0  0  0  0  0
   28.8145   35.8582   61.6145 H   0  0  0  0  0  0  0  0  0  0  0  0
   29.2976   36.8068   59.3749 H   0  0  0  0  0  0  0  0  0  0  0  0
   30.5097   35.5839   59.8258 H   0  0  0  0  0  0  0  0  0  0  0  0
   31.5916   37.5967   58.8631 H   0  0  0  0  0  0  0  0  0  0  0  0
   30.8343   38.6047   60.1196 H   0  0  0  0  0  0  0  0  0  0  0  0
   32.7701   36.2975   60.6156 H   0  0  0  0  0  0  0  0  0  0  0  0
   33.1683   38.0286   60.7274 H   0  0  0  0  0  0  0  0  0  0  0  0
   32.6852   37.0801   62.9669 H   0  0  0  0  0  0  0  0  0  0  0  0
   31.4730   38.3029   62.5161 H   0  0  0  0  0  0  0  0  0  0  0  0
  1  2  3  0  0  0  0
  1 13  1  0  0  0  0
  2  3  1  0  0  0  0
  3 12  1  0  0  0  0
  3  4  1  0  0  0  0
  3  8  1  0  0  0  0
  4  5  1  0  0  0  0
  5  6  1  0  0  0  0
  5  7  2  0  0  0  0
  6 14  1  0  0  0  0
  6 15  1  0  0  0  0
  8  9  1  0  0  0  0
  8 16  1  0  0  0  0
  8 17  1  0  0  0  0
  9 10  1  0  0  0  0
  9 18  1  0  0  0  0
  9 19  1  0  0  0  0
 10 11  1  0  0  0  0
 10 20  1  0  0  0  0
 10 21  1  0  0  0  0
 11 12  1  0  0  0  0
 11 22  1  0  0  0  0
 11 23  1  0  0  0  0
 12 24  1  0  0  0  0
 12 25  1  0  0  0  0
M  END
$$$$
