ZINC000000002866      none
 OpenBabel11202420153D

 42 45  0  0  1  0  0  0  0  0999 V2000
   31.7796   39.0516   57.5894 C   0  0  0  0  0  0  0  0  0  0  0  0
   31.5446   38.4338   58.8824 O   0  0  0  0  0  0  0  0  0  0  0  0
   32.1301   37.2470   59.1060 C   0  0  0  0  0  0  0  0  0  0  0  0
   32.8162   36.7409   58.2498 O   0  0  0  0  0  0  0  0  0  0  0  0
   31.9317   36.5455   60.4250 C   0  0  1  0  0  0  0  0  0  0  0  0
   32.4476   37.4346   61.5600 C   0  0  0  0  0  0  0  0  0  0  0  0
   32.1881   36.7438   62.9006 C   0  0  0  0  0  0  0  0  0  0  0  0
   30.7479   36.5040   63.0586 N   0  0  0  0  0  0  0  0  0  0  0  0
   30.4612   35.9938   64.3287 C   0  0  0  0  0  0  0  0  0  0  0  0
   30.7845   36.7369   65.4649 C   0  0  0  0  0  0  0  0  0  0  0  0
   30.5096   36.2502   66.7221 C   0  0  0  0  0  0  0  0  0  0  0  0
   29.9022   35.0056   66.8709 C   0  0  0  0  0  0  0  0  0  0  0  0
   29.6223   34.5106   68.1265 N   0  0  0  0  0  0  0  0  0  0  0  0
   29.8497   35.0319   68.9122 H   0  0  0  0  0  0  0  0  0  0  0  0
   29.0259   33.2908   68.2700 C   0  0  0  0  0  0  0  0  0  0  0  0
   28.6522   32.5920   69.3380 N   0  0  0  0  0  0  0  0  0  0  0  0
   28.1053   31.4401   68.9591 C   0  0  0  0  0  0  0  0  0  0  0  0
   27.6686   30.5894   69.7169 O   0  0  0  0  0  0  0  0  0  0  0  0
   28.1104   31.3495   67.6142 N   0  0  0  0  0  0  0  0  0  0  0  0
   27.7735   30.6103   67.0841 H   0  0  0  0  0  0  0  0  0  0  0  0
   28.6889   32.5204   67.1304 C   0  0  0  0  0  0  0  0  0  0  0  0
   28.9549   32.9846   65.8793 C   0  0  0  0  0  0  0  0  0  0  0  0
   29.5729   34.2509   65.7278 C   0  0  0  0  0  0  0  0  0  0  0  0
   29.8591   34.7577   64.4524 C   0  0  0  0  0  0  0  0  0  0  0  0
   30.2393   35.6143   62.0068 C   0  0  0  0  0  0  0  0  0  0  0  0
   30.4406   36.2713   60.6395 C   0  0  0  0  0  0  0  0  0  0  0  0
   31.2505   40.0033   57.5399 H   0  0  0  0  0  0  0  0  0  0  0  0
   32.8480   39.2225   57.4572 H   0  0  0  0  0  0  0  0  0  0  0  0
   31.4165   38.3927   56.8006 H   0  0  0  0  0  0  0  0  0  0  0  0
   32.4789   35.6028   60.4233 H   0  0  0  0  0  0  0  0  0  0  0  0
   31.9274   38.3922   61.5373 H   0  0  0  0  0  0  0  0  0  0  0  0
   33.5179   37.5989   61.4364 H   0  0  0  0  0  0  0  0  0  0  0  0
   32.5413   37.3805   63.7117 H   0  0  0  0  0  0  0  0  0  0  0  0
   32.7198   35.7926   62.9280 H   0  0  0  0  0  0  0  0  0  0  0  0
   31.2553   37.7028   65.3563 H   0  0  0  0  0  0  0  0  0  0  0  0
   30.7646   36.8339   67.5942 H   0  0  0  0  0  0  0  0  0  0  0  0
   28.6968   32.3954   65.0118 H   0  0  0  0  0  0  0  0  0  0  0  0
   29.6099   34.1845   63.5718 H   0  0  0  0  0  0  0  0  0  0  0  0
   30.7801   34.6684   62.0384 H   0  0  0  0  0  0  0  0  0  0  0  0
   29.1772   35.4306   62.1687 H   0  0  0  0  0  0  0  0  0  0  0  0
   29.8889   37.2106   60.6024 H   0  0  0  0  0  0  0  0  0  0  0  0
   30.0771   35.6045   59.8576 H   0  0  0  0  0  0  0  0  0  0  0  0
  1  2  1  0  0  0  0
  1 27  1  0  0  0  0
  1 28  1  0  0  0  0
  1 29  1  0  0  0  0
  2  3  1  0  0  0  0
  3  4  2  0  0  0  0
  3  5  1  0  0  0  0
  5 26  1  0  0  0  0
  5  6  1  0  0  0  0
  5 30  1  6  0  0  0
  6  7  1  0  0  0  0
  6 31  1  0  0  0  0
  6 32  1  0  0  0  0
  7  8  1  0  0  0  0
  7 33  1  0  0  0  0
  7 34  1  0  0  0  0
  8  9  1  0  0  0  0
  8 25  1  0  0  0  0
  9 24  2  0  0  0  0
  9 10  1  0  0  0  0
 10 11  2  0  0  0  0
 10 35  1  0  0  0  0
 11 12  1  0  0  0  0
 11 36  1  0  0  0  0
 12 23  2  0  0  0  0
 12 13  1  0  0  0  0
 13 14  1  0  0  0  0
 13 15  1  0  0  0  0
 15 21  1  0  0  0  0
 15 16  2  0  0  0  0
 16 17  1  0  0  0  0
 17 18  2  0  0  0  0
 17 19  1  0  0  0  0
 19 20  1  0  0  0  0
 19 21  1  0  0  0  0
 21 22  2  0  0  0  0
 22 23  1  0  0  0  0
 22 37  1  0  0  0  0
 23 24  1  0  0  0  0
 24 38  1  0  0  0  0
 25 26  1  0  0  0  0
 25 39  1  0  0  0  0
 25 40  1  0  0  0  0
 26 41  1  0  0  0  0
 26 42  1  0  0  0  0
M  END
$$$$
