ZINC000000035744      none
 OpenBabel11202420153D

 23 24  0  0  0  0  0  0  0  0999 V2000
   31.7672   37.1041   65.1539 O   0  0  0  0  0  0  0  0  0  0  0  0
   32.5114   36.8966   64.2165 C   0  0  0  0  0  0  0  0  0  0  0  0
   31.9901   36.8059   62.9085 C   0  0  0  0  0  0  0  0  0  0  0  0
   30.6581   36.9274   62.5564 C   0  0  0  0  0  0  0  0  0  0  0  0
   30.5906   36.7658   61.1716 C   0  0  0  0  0  0  0  0  0  0  0  0
   31.8769   36.5525   60.7277 C   0  0  0  0  0  0  0  0  0  0  0  0
   32.2788   36.3311   59.3243 C   0  0  0  0  0  0  0  0  0  0  0  0
   32.3281   35.0354   58.8047 C   0  0  0  0  0  0  0  0  0  0  0  0
   32.6988   34.8364   57.4913 C   0  0  0  0  0  0  0  0  0  0  0  0
   33.0330   35.9157   56.6922 C   0  0  0  0  0  0  0  0  0  0  0  0
   32.9919   37.2013   57.2019 C   0  0  0  0  0  0  0  0  0  0  0  0
   32.6169   37.4155   58.5121 C   0  0  0  0  0  0  0  0  0  0  0  0
   32.5735   38.7916   59.0557 N   0  0  0  0  0  0  0  0  0  0  0  0
   32.2425   38.9791   60.2128 O   0  0  0  0  0  0  0  0  0  0  0  0
   32.8687   39.7365   58.3460 O   0  0  0  0  0  0  0  0  0  0  0  0
   32.7046   36.5798   61.7852 O   0  0  0  0  0  0  0  0  0  0  0  0
   33.5720   36.7817   64.3842 H   0  0  0  0  0  0  0  0  0  0  0  0
   29.8296   37.1118   63.2243 H   0  0  0  0  0  0  0  0  0  0  0  0
   29.6988   36.8017   60.5634 H   0  0  0  0  0  0  0  0  0  0  0  0
   32.0722   34.1918   59.4287 H   0  0  0  0  0  0  0  0  0  0  0  0
   32.7327   33.8355   57.0868 H   0  0  0  0  0  0  0  0  0  0  0  0
   33.3271   35.7537   55.6656 H   0  0  0  0  0  0  0  0  0  0  0  0
   33.2536   38.0390   56.5726 H   0  0  0  0  0  0  0  0  0  0  0  0
  1  2  2  0  0  0  0
  2  3  1  0  0  0  0
  2 17  1  0  0  0  0
  3 16  1  0  0  0  0
  3  4  2  0  0  0  0
  4  5  1  0  0  0  0
  4 18  1  0  0  0  0
  5  6  2  0  0  0  0
  5 19  1  0  0  0  0
  6  7  1  0  0  0  0
  6 16  1  0  0  0  0
  7 12  2  0  0  0  0
  7  8  1  0  0  0  0
  8  9  2  0  0  0  0
  8 20  1  0  0  0  0
  9 10  1  0  0  0  0
  9 21  1  0  0  0  0
 10 11  2  0  0  0  0
 10 22  1  0  0  0  0
 11 12  1  0  0  0  0
 11 23  1  0  0  0  0
 12 13  1  0  0  0  0
 13 14  2  0  0  0  0
 13 15  2  0  0  0  0
M  END
$$$$
