ZINC000000005085      none
 OpenBabel11202420153D

 47 49  0  0  0  0  0  0  0  0999 V2000
   34.2225   39.8166   67.3641 C   0  0  0  0  0  0  0  0  0  0  0  0
   32.8765   40.2274   67.7212 O   0  0  0  0  0  0  0  0  0  0  0  0
   31.9661   40.2706   66.7279 C   0  0  0  0  0  0  0  0  0  0  0  0
   32.2886   39.9730   65.5944 O   0  0  0  0  0  0  0  0  0  0  0  0
   30.5830   40.6777   67.0159 C   0  0  0  0  0  0  0  0  0  0  0  0
   30.1660   41.5402   67.9872 C   0  0  0  0  0  0  0  0  0  0  0  0
   31.0584   42.2546   68.9691 C   0  0  0  0  0  0  0  0  0  0  0  0
   28.8174   41.6486   67.9227 N   0  0  0  0  0  0  0  0  0  0  0  0
   28.2800   42.2037   68.5091 H   0  0  0  0  0  0  0  0  0  0  0  0
   28.3233   40.8800   66.9233 C   0  0  0  0  0  0  0  0  0  0  0  0
   26.8689   40.7531   66.5498 C   0  0  0  0  0  0  0  0  0  0  0  0
   29.3613   40.2364   66.3123 C   0  0  0  0  0  0  0  0  0  0  0  0
   29.2800   39.3002   65.1813 C   0  0  0  0  0  0  0  0  0  0  0  0
   28.3878   39.4120   64.3621 O   0  0  0  0  0  0  0  0  0  0  0  0
   30.2828   38.2230   65.0397 C   0  0  0  0  0  0  0  0  0  0  0  0
   30.8869   37.6739   66.1727 C   0  0  0  0  0  0  0  0  0  0  0  0
   31.8219   36.6697   66.0334 C   0  0  0  0  0  0  0  0  0  0  0  0
   32.1618   36.2061   64.7745 C   0  0  0  0  0  0  0  0  0  0  0  0
   31.5630   36.7418   63.6482 C   0  0  0  0  0  0  0  0  0  0  0  0
   30.6303   37.7507   63.7728 C   0  0  0  0  0  0  0  0  0  0  0  0
   29.9837   38.3373   62.5446 C   0  0  0  0  0  0  0  0  0  0  0  0
   30.5250   37.6525   61.3161 C   0  0  0  0  0  0  0  0  0  0  0  0
   31.6467   38.1542   60.6829 C   0  0  0  0  0  0  0  0  0  0  0  0
   32.1437   37.5255   59.5565 C   0  0  0  0  0  0  0  0  0  0  0  0
   31.5194   36.3950   59.0637 C   0  0  0  0  0  0  0  0  0  0  0  0
   30.3946   35.8964   59.6938 C   0  0  0  0  0  0  0  0  0  0  0  0
   29.9001   36.5226   60.8227 C   0  0  0  0  0  0  0  0  0  0  0  0
   34.1966   38.8099   66.9467 H   0  0  0  0  0  0  0  0  0  0  0  0
   34.6287   40.5064   66.6242 H   0  0  0  0  0  0  0  0  0  0  0  0
   34.8530   39.8250   68.2533 H   0  0  0  0  0  0  0  0  0  0  0  0
   31.3677   43.2119   68.5492 H   0  0  0  0  0  0  0  0  0  0  0  0
   30.5139   42.4243   69.8981 H   0  0  0  0  0  0  0  0  0  0  0  0
   31.9390   41.6446   69.1703 H   0  0  0  0  0  0  0  0  0  0  0  0
   26.4039   39.9775   67.1583 H   0  0  0  0  0  0  0  0  0  0  0  0
   26.3644   41.7033   66.7247 H   0  0  0  0  0  0  0  0  0  0  0  0
   26.7862   40.4864   65.4961 H   0  0  0  0  0  0  0  0  0  0  0  0
   30.6227   38.0350   67.1557 H   0  0  0  0  0  0  0  0  0  0  0  0
   32.2902   36.2443   66.9088 H   0  0  0  0  0  0  0  0  0  0  0  0
   32.8949   35.4197   64.6711 H   0  0  0  0  0  0  0  0  0  0  0  0
   31.8292   36.3721   62.6689 H   0  0  0  0  0  0  0  0  0  0  0  0
   30.2032   39.4037   62.4924 H   0  0  0  0  0  0  0  0  0  0  0  0
   28.9048   38.1906   62.5967 H   0  0  0  0  0  0  0  0  0  0  0  0
   32.1349   39.0371   61.0683 H   0  0  0  0  0  0  0  0  0  0  0  0
   33.0202   37.9175   59.0617 H   0  0  0  0  0  0  0  0  0  0  0  0
   31.9077   35.9038   58.1837 H   0  0  0  0  0  0  0  0  0  0  0  0
   29.9042   35.0156   59.3062 H   0  0  0  0  0  0  0  0  0  0  0  0
   29.0239   36.1304   61.3176 H   0  0  0  0  0  0  0  0  0  0  0  0
  1  2  1  0  0  0  0
  1 28  1  0  0  0  0
  1 29  1  0  0  0  0
  1 30  1  0  0  0  0
  2  3  1  0  0  0  0
  3  4  2  0  0  0  0
  3  5  1  0  0  0  0
  5 12  1  0  0  0  0
  5  6  2  0  0  0  0
  6  7  1  0  0  0  0
  6  8  1  0  0  0  0
  7 31  1  0  0  0  0
  7 32  1  0  0  0  0
  7 33  1  0  0  0  0
  8  9  1  0  0  0  0
  8 10  1  0  0  0  0
 10 11  1  0  0  0  0
 10 12  2  0  0  0  0
 11 34  1  0  0  0  0
 11 35  1  0  0  0  0
 11 36  1  0  0  0  0
 12 13  1  0  0  0  0
 13 14  2  0  0  0  0
 13 15  1  0  0  0  0
 15 20  2  0  0  0  0
 15 16  1  0  0  0  0
 16 17  2  0  0  0  0
 16 37  1  0  0  0  0
 17 18  1  0  0  0  0
 17 38  1  0  0  0  0
 18 19  2  0  0  0  0
 18 39  1  0  0  0  0
 19 20  1  0  0  0  0
 19 40  1  0  0  0  0
 20 21  1  0  0  0  0
 21 22  1  0  0  0  0
 21 41  1  0  0  0  0
 21 42  1  0  0  0  0
 22 27  2  0  0  0  0
 22 23  1  0  0  0  0
 23 24  2  0  0  0  0
 23 43  1  0  0  0  0
 24 25  1  0  0  0  0
 24 44  1  0  0  0  0
 25 26  2  0  0  0  0
 25 45  1  0  0  0  0
 26 27  1  0  0  0  0
 26 46  1  0  0  0  0
 27 47  1  0  0  0  0
M  END
$$$$
