ZINC000000048927      none
 OpenBabel11202420153D

 35 37  0  0  1  0  0  0  0  0999 V2000
   32.1980   33.9691   59.3438 C   0  0  0  0  0  0  0  0  0  0  0  0
   32.2120   35.3554   59.6904 O   0  0  0  0  0  0  0  0  0  0  0  0
   32.6055   36.2285   58.7262 C   0  0  0  0  0  0  0  0  0  0  0  0
   32.9656   35.7610   57.4703 C   0  0  0  0  0  0  0  0  0  0  0  0
   33.3706   36.6499   56.4938 C   0  0  0  0  0  0  0  0  0  0  0  0
   33.4119   38.0053   56.7651 C   0  0  0  0  0  0  0  0  0  0  0  0
   33.8463   38.9556   55.7168 N   0  0  0  0  0  0  0  0  0  0  0  0
   34.1670   38.5435   54.6164 O   0  0  0  0  0  0  0  0  0  0  0  0
   33.8832   40.1496   55.9546 O   0  0  0  0  0  0  0  0  0  0  0  0
   33.0485   38.4740   58.0138 C   0  0  0  0  0  0  0  0  0  0  0  0
   32.6427   37.5890   58.9941 C   0  0  0  0  0  0  0  0  0  0  0  0
   32.2467   38.1007   60.3551 C   0  0  2  0  0  0  0  0  0  0  0  0
   32.3310   39.1864   60.4015 H   0  0  0  0  0  0  0  0  0  0  0  0
   33.0521   37.4634   61.4131 N   0  0  0  0  0  0  0  0  0  0  0  0
   32.3181   36.7279   62.3169 N   0  0  0  0  0  0  0  0  0  0  0  0
   31.0345   36.6117   62.2202 C   0  0  0  0  0  0  0  0  0  0  0  0
   30.1431   35.8504   63.1214 C   0  0  0  0  0  0  0  0  0  0  0  0
   28.7681   35.8189   62.8846 C   0  0  0  0  0  0  0  0  0  0  0  0
   27.9420   35.1062   63.7292 C   0  0  0  0  0  0  0  0  0  0  0  0
   28.4740   34.4242   64.8091 C   0  0  0  0  0  0  0  0  0  0  0  0
   29.8356   34.4559   65.0525 C   0  0  0  0  0  0  0  0  0  0  0  0
   30.6733   35.1599   64.2123 C   0  0  0  0  0  0  0  0  0  0  0  0
   30.5529   37.5552   60.7933 S   0  0  0  0  0  0  0  0  0  0  0  0
   31.8657   33.3836   60.2011 H   0  0  0  0  0  0  0  0  0  0  0  0
   31.5157   33.8103   58.5088 H   0  0  0  0  0  0  0  0  0  0  0  0
   33.2020   33.6561   59.0573 H   0  0  0  0  0  0  0  0  0  0  0  0
   32.9335   34.7025   57.2580 H   0  0  0  0  0  0  0  0  0  0  0  0
   33.6549   36.2860   55.5175 H   0  0  0  0  0  0  0  0  0  0  0  0
   33.0823   39.5330   58.2234 H   0  0  0  0  0  0  0  0  0  0  0  0
   34.0159   37.5574   61.4700 H   0  0  0  0  0  0  0  0  0  0  0  0
   28.3516   36.3507   62.0421 H   0  0  0  0  0  0  0  0  0  0  0  0
   26.8777   35.0810   63.5472 H   0  0  0  0  0  0  0  0  0  0  0  0
   27.8228   33.8685   65.4677 H   0  0  0  0  0  0  0  0  0  0  0  0
   30.2440   33.9247   65.8994 H   0  0  0  0  0  0  0  0  0  0  0  0
   31.7365   35.1803   64.4009 H   0  0  0  0  0  0  0  0  0  0  0  0
  1  2  1  0  0  0  0
  1 24  1  0  0  0  0
  1 25  1  0  0  0  0
  1 26  1  0  0  0  0
  2  3  1  0  0  0  0
  3 11  2  0  0  0  0
  3  4  1  0  0  0  0
  4  5  2  0  0  0  0
  4 27  1  0  0  0  0
  5  6  1  0  0  0  0
  5 28  1  0  0  0  0
  6  7  1  0  0  0  0
  6 10  2  0  0  0  0
  7  8  2  0  0  0  0
  7  9  2  0  0  0  0
 10 11  1  0  0  0  0
 10 29  1  0  0  0  0
 11 12  1  0  0  0  0
 12 13  1  1  0  0  0
 12 23  1  0  0  0  0
 12 14  1  0  0  0  0
 14 15  1  0  0  0  0
 14 30  1  0  0  0  0
 15 16  2  0  0  0  0
 16 17  1  0  0  0  0
 16 23  1  0  0  0  0
 17 22  2  0  0  0  0
 17 18  1  0  0  0  0
 18 19  2  0  0  0  0
 18 31  1  0  0  0  0
 19 20  1  0  0  0  0
 19 32  1  0  0  0  0
 20 21  2  0  0  0  0
 20 33  1  0  0  0  0
 21 22  1  0  0  0  0
 21 34  1  0  0  0  0
 22 35  1  0  0  0  0
M  END
$$$$
