ZINC000000041840      none
 OpenBabel11202420153D

 33 34  0  0  0  0  0  0  0  0999 V2000
   33.4266   36.8571   55.5638 C   0  0  0  0  0  0  0  0  0  0  0  0
   33.0394   37.0263   57.0104 C   0  0  0  0  0  0  0  0  0  0  0  0
   32.6191   35.9343   57.7450 C   0  0  0  0  0  0  0  0  0  0  0  0
   32.2628   36.0906   59.0763 C   0  0  0  0  0  0  0  0  0  0  0  0
   31.8495   35.0174   59.8007 O   0  0  0  0  0  0  0  0  0  0  0  0
   30.9175   35.2662   60.8549 C   0  0  0  0  0  0  0  0  0  0  0  0
   31.6666   35.5502   62.1313 C   0  0  0  0  0  0  0  0  0  0  0  0
   32.7526   35.0450   62.3222 O   0  0  0  0  0  0  0  0  0  0  0  0
   31.1299   36.3655   63.0606 N   0  0  0  0  0  0  0  0  0  0  0  0
   31.8255   36.6293   64.2456 C   0  0  0  0  0  0  0  0  0  0  0  0
   31.1288   36.9078   65.4142 C   0  0  0  0  0  0  0  0  0  0  0  0
   31.8183   37.1624   66.5835 C   0  0  0  0  0  0  0  0  0  0  0  0
   33.2011   37.1511   66.5890 C   0  0  0  0  0  0  0  0  0  0  0  0
   33.8979   36.8798   65.4257 C   0  0  0  0  0  0  0  0  0  0  0  0
   33.2142   36.6186   64.2544 C   0  0  0  0  0  0  0  0  0  0  0  0
   32.3296   37.3438   59.6679 C   0  0  0  0  0  0  0  0  0  0  0  0
   32.7508   38.4331   58.9304 C   0  0  0  0  0  0  0  0  0  0  0  0
   33.1057   38.2751   57.6022 C   0  0  0  0  0  0  0  0  0  0  0  0
   33.6416   39.6443   56.6793 Cl  0  0  0  0  0  0  0  0  0  0  0  0
   34.4907   36.6313   55.4966 H   0  0  0  0  0  0  0  0  0  0  0  0
   32.8533   36.0389   55.1277 H   0  0  0  0  0  0  0  0  0  0  0  0
   33.2154   37.7784   55.0211 H   0  0  0  0  0  0  0  0  0  0  0  0
   32.5674   34.9595   57.2826 H   0  0  0  0  0  0  0  0  0  0  0  0
   30.2989   36.1260   60.5975 H   0  0  0  0  0  0  0  0  0  0  0  0
   30.2831   34.3907   60.9931 H   0  0  0  0  0  0  0  0  0  0  0  0
   30.2613   36.7695   62.9079 H   0  0  0  0  0  0  0  0  0  0  0  0
   30.0489   36.9208   65.4096 H   0  0  0  0  0  0  0  0  0  0  0  0
   31.2770   37.3748   67.4936 H   0  0  0  0  0  0  0  0  0  0  0  0
   33.7379   37.3551   67.5035 H   0  0  0  0  0  0  0  0  0  0  0  0
   34.9777   36.8717   65.4332 H   0  0  0  0  0  0  0  0  0  0  0  0
   33.7589   36.4067   63.3463 H   0  0  0  0  0  0  0  0  0  0  0  0
   32.0523   37.4676   60.7043 H   0  0  0  0  0  0  0  0  0  0  0  0
   32.8032   39.4087   59.3906 H   0  0  0  0  0  0  0  0  0  0  0  0
  1  2  1  0  0  0  0
  1 20  1  0  0  0  0
  1 21  1  0  0  0  0
  1 22  1  0  0  0  0
  2 18  2  0  0  0  0
  2  3  1  0  0  0  0
  3  4  2  0  0  0  0
  3 23  1  0  0  0  0
  4  5  1  0  0  0  0
  4 16  1  0  0  0  0
  5  6  1  0  0  0  0
  6  7  1  0  0  0  0
  6 24  1  0  0  0  0
  6 25  1  0  0  0  0
  7  8  2  0  0  0  0
  7  9  1  0  0  0  0
  9 10  1  0  0  0  0
  9 26  1  0  0  0  0
 10 15  2  0  0  0  0
 10 11  1  0  0  0  0
 11 12  2  0  0  0  0
 11 27  1  0  0  0  0
 12 13  1  0  0  0  0
 12 28  1  0  0  0  0
 13 14  2  0  0  0  0
 13 29  1  0  0  0  0
 14 15  1  0  0  0  0
 14 30  1  0  0  0  0
 15 31  1  0  0  0  0
 16 17  2  0  0  0  0
 16 32  1  0  0  0  0
 17 18  1  0  0  0  0
 17 33  1  0  0  0  0
 18 19  1  0  0  0  0
M  END
$$$$
