ZINC000000045809      none
 OpenBabel11202420153D

 31 32  0  0  0  0  0  0  0  0999 V2000
   29.1071   36.6965   62.4185 C   0  0  0  0  0  0  0  0  0  0  0  0
   30.5655   36.2349   62.3908 C   0  0  0  0  0  0  0  0  0  0  0  0
   30.9942   36.0100   60.9638 C   0  0  0  0  0  0  0  0  0  0  0  0
   30.8521   34.9238   60.4543 O   0  0  0  0  0  0  0  0  0  0  0  0
   31.5312   37.0222   60.2539 N   0  0  0  0  0  0  0  0  0  0  0  0
   31.7364   38.2950   60.7010 C   0  0  0  0  0  0  0  0  0  0  0  0
   32.2932   39.0005   59.6974 C   0  0  0  0  0  0  0  0  0  0  0  0
   32.4302   38.1397   58.5845 C   0  0  0  0  0  0  0  0  0  0  0  0
   32.9907   38.5072   57.2670 C   0  0  0  0  0  0  0  0  0  0  0  0
   32.8826   39.6464   56.8568 O   0  0  0  0  0  0  0  0  0  0  0  0
   33.6217   37.5791   56.5206 N   0  0  0  0  0  0  0  0  0  0  0  0
   34.1521   37.9268   55.2742 C   0  0  0  0  0  0  0  0  0  0  0  0
   34.2347   36.9775   54.2637 C   0  0  0  0  0  0  0  0  0  0  0  0
   34.7542   37.3254   53.0323 C   0  0  0  0  0  0  0  0  0  0  0  0
   35.2019   38.6144   52.8082 C   0  0  0  0  0  0  0  0  0  0  0  0
   35.1260   39.5606   53.8139 C   0  0  0  0  0  0  0  0  0  0  0  0
   34.6027   39.2205   55.0459 C   0  0  0  0  0  0  0  0  0  0  0  0
   31.9708   36.9540   58.9257 N   0  0  0  0  0  0  0  0  0  0  0  0
   29.0097   37.6268   61.8590 H   0  0  0  0  0  0  0  0  0  0  0  0
   28.4754   35.9322   61.9655 H   0  0  0  0  0  0  0  0  0  0  0  0
   28.7969   36.8589   63.4507 H   0  0  0  0  0  0  0  0  0  0  0  0
   30.6629   35.3044   62.9503 H   0  0  0  0  0  0  0  0  0  0  0  0
   31.1970   36.9990   62.8439 H   0  0  0  0  0  0  0  0  0  0  0  0
   31.4977   38.6694   61.6855 H   0  0  0  0  0  0  0  0  0  0  0  0
   32.5798   40.0411   59.7350 H   0  0  0  0  0  0  0  0  0  0  0  0
   33.7080   36.6701   56.8480 H   0  0  0  0  0  0  0  0  0  0  0  0
   33.8893   35.9694   54.4395 H   0  0  0  0  0  0  0  0  0  0  0  0
   34.8145   36.5889   52.2446 H   0  0  0  0  0  0  0  0  0  0  0  0
   35.6122   38.8827   51.8459 H   0  0  0  0  0  0  0  0  0  0  0  0
   35.4765   40.5664   53.6357 H   0  0  0  0  0  0  0  0  0  0  0  0
   34.5443   39.9598   55.8312 H   0  0  0  0  0  0  0  0  0  0  0  0
  1  2  1  0  0  0  0
  1 19  1  0  0  0  0
  1 20  1  0  0  0  0
  1 21  1  0  0  0  0
  2  3  1  0  0  0  0
  2 22  1  0  0  0  0
  2 23  1  0  0  0  0
  3  4  2  0  0  0  0
  3  5  1  0  0  0  0
  5 18  1  0  0  0  0
  5  6  1  0  0  0  0
  6  7  2  0  0  0  0
  6 24  1  0  0  0  0
  7  8  1  0  0  0  0
  7 25  1  0  0  0  0
  8  9  1  0  0  0  0
  8 18  2  0  0  0  0
  9 10  2  0  0  0  0
  9 11  1  0  0  0  0
 11 12  1  0  0  0  0
 11 26  1  0  0  0  0
 12 17  2  0  0  0  0
 12 13  1  0  0  0  0
 13 14  2  0  0  0  0
 13 27  1  0  0  0  0
 14 15  1  0  0  0  0
 14 28  1  0  0  0  0
 15 16  2  0  0  0  0
 15 29  1  0  0  0  0
 16 17  1  0  0  0  0
 16 30  1  0  0  0  0
 17 31  1  0  0  0  0
M  END
$$$$
