ZINC000000049499      none
 OpenBabel11202420153D

 44 46  0  0  0  0  0  0  0  0999 V2000
   33.4256   38.2924   66.5390 C   0  0  0  0  0  0  0  0  0  0  0  0
   32.3529   39.0182   65.9351 O   0  0  0  0  0  0  0  0  0  0  0  0
   31.1395   38.2725   65.8190 C   0  0  0  0  0  0  0  0  0  0  0  0
   31.2233   37.3597   64.6228 C   0  0  0  0  0  0  0  0  0  0  0  0
   30.8247   36.0712   64.7257 C   0  0  0  0  0  0  0  0  0  0  0  0
   30.8998   35.2219   63.6037 C   0  0  0  0  0  0  0  0  0  0  0  0
   30.5379   34.0619   63.6908 O   0  0  0  0  0  0  0  0  0  0  0  0
   31.3786   35.6939   62.4356 N   0  0  0  0  0  0  0  0  0  0  0  0
   31.5688   35.0908   61.1858 N   0  0  0  0  0  0  0  0  0  0  0  0
   32.0701   35.9897   60.3636 C   0  0  0  0  0  0  0  0  0  0  0  0
   32.4209   35.7643   58.9393 C   0  0  0  0  0  0  0  0  0  0  0  0
   32.9408   36.8061   58.1739 C   0  0  0  0  0  0  0  0  0  0  0  0
   33.2702   36.5896   56.8512 C   0  0  0  0  0  0  0  0  0  0  0  0
   33.0748   35.3441   56.2822 C   0  0  0  0  0  0  0  0  0  0  0  0
   33.4313   35.1151   54.8360 C   0  0  0  0  0  0  0  0  0  0  0  0
   34.9225   35.3880   54.6289 C   0  0  0  0  0  0  0  0  0  0  0  0
   33.1208   33.6655   54.4577 C   0  0  0  0  0  0  0  0  0  0  0  0
   32.6126   36.0591   53.9532 C   0  0  0  0  0  0  0  0  0  0  0  0
   32.5536   34.3078   57.0358 C   0  0  0  0  0  0  0  0  0  0  0  0
   32.2261   34.5118   58.3609 C   0  0  0  0  0  0  0  0  0  0  0  0
   32.2161   37.1986   61.0656 C   0  0  0  0  0  0  0  0  0  0  0  0
   31.7845   36.9948   62.3399 C   0  0  0  0  0  0  0  0  0  0  0  0
   31.7061   37.8305   63.4389 N   0  0  0  0  0  0  0  0  0  0  0  0
   31.9949   38.7537   63.3668 H   0  0  0  0  0  0  0  0  0  0  0  0
   34.3101   38.9273   66.5906 H   0  0  0  0  0  0  0  0  0  0  0  0
   33.1374   37.9884   67.5453 H   0  0  0  0  0  0  0  0  0  0  0  0
   33.6475   37.4081   65.9418 H   0  0  0  0  0  0  0  0  0  0  0  0
   30.9908   37.6777   66.7202 H   0  0  0  0  0  0  0  0  0  0  0  0
   30.3018   38.9587   65.6943 H   0  0  0  0  0  0  0  0  0  0  0  0
   30.4457   35.6954   65.6645 H   0  0  0  0  0  0  0  0  0  0  0  0
   33.0896   37.7802   58.6160 H   0  0  0  0  0  0  0  0  0  0  0  0
   33.6771   37.3953   56.2582 H   0  0  0  0  0  0  0  0  0  0  0  0
   35.5057   34.7154   55.2578 H   0  0  0  0  0  0  0  0  0  0  0  0
   35.1803   35.2223   53.5829 H   0  0  0  0  0  0  0  0  0  0  0  0
   35.1436   36.4207   54.8984 H   0  0  0  0  0  0  0  0  0  0  0  0
   32.0585   33.4710   54.6052 H   0  0  0  0  0  0  0  0  0  0  0  0
   33.3787   33.4997   53.4116 H   0  0  0  0  0  0  0  0  0  0  0  0
   33.7041   32.9929   55.0865 H   0  0  0  0  0  0  0  0  0  0  0  0
   32.8338   37.0918   54.2227 H   0  0  0  0  0  0  0  0  0  0  0  0
   32.8705   35.8935   52.9071 H   0  0  0  0  0  0  0  0  0  0  0  0
   31.5503   35.8647   54.1007 H   0  0  0  0  0  0  0  0  0  0  0  0
   32.4031   33.3374   56.5864 H   0  0  0  0  0  0  0  0  0  0  0  0
   31.8199   33.7018   58.9487 H   0  0  0  0  0  0  0  0  0  0  0  0
   32.6021   38.1243   60.6651 H   0  0  0  0  0  0  0  0  0  0  0  0
  1  2  1  0  0  0  0
  1 25  1  0  0  0  0
  1 26  1  0  0  0  0
  1 27  1  0  0  0  0
  2  3  1  0  0  0  0
  3  4  1  0  0  0  0
  3 28  1  0  0  0  0
  3 29  1  0  0  0  0
  4 23  1  0  0  0  0
  4  5  2  0  0  0  0
  5  6  1  0  0  0  0
  5 30  1  0  0  0  0
  6  7  2  0  0  0  0
  6  8  1  0  0  0  0
  8 22  1  0  0  0  0
  8  9  1  0  0  0  0
  9 10  2  0  0  0  0
 10 11  1  0  0  0  0
 10 21  1  0  0  0  0
 11 20  2  0  0  0  0
 11 12  1  0  0  0  0
 12 13  2  0  0  0  0
 12 31  1  0  0  0  0
 13 14  1  0  0  0  0
 13 32  1  0  0  0  0
 14 15  1  0  0  0  0
 14 19  2  0  0  0  0
 15 16  1  0  0  0  0
 15 17  1  0  0  0  0
 15 18  1  0  0  0  0
 16 33  1  0  0  0  0
 16 34  1  0  0  0  0
 16 35  1  0  0  0  0
 17 36  1  0  0  0  0
 17 37  1  0  0  0  0
 17 38  1  0  0  0  0
 18 39  1  0  0  0  0
 18 40  1  0  0  0  0
 18 41  1  0  0  0  0
 19 20  1  0  0  0  0
 19 42  1  0  0  0  0
 20 43  1  0  0  0  0
 21 22  2  0  0  0  0
 21 44  1  0  0  0  0
 22 23  1  0  0  0  0
 23 24  1  0  0  0  0
M  END
$$$$
