ZINC000000052412      none
 OpenBabel11202420153D

 29 29  0  0  0  0  0  0  0  0999 V2000
   35.4151   37.3214   53.6521 C   0  0  0  0  0  0  0  0  0  0  0  0
   34.9573   36.1934   54.4436 O   0  0  0  0  0  0  0  0  0  0  0  0
   33.8566   35.5553   54.0155 C   0  0  0  0  0  0  0  0  0  0  0  0
   33.2944   35.9270   53.0125 O   0  0  0  0  0  0  0  0  0  0  0  0
   33.3184   34.3794   54.7891 C   0  0  0  0  0  0  0  0  0  0  0  0
   34.3629   33.2946   54.8453 C   0  0  0  0  0  0  0  0  0  0  0  0
   35.4345   33.4594   54.3119 O   0  0  0  0  0  0  0  0  0  0  0  0
   34.1028   32.1451   55.4879 O   0  0  0  0  0  0  0  0  0  0  0  0
   35.1553   31.1448   55.5015 C   0  0  0  0  0  0  0  0  0  0  0  0
   32.9713   34.8155   56.1892 C   0  0  0  0  0  0  0  0  0  0  0  0
   33.1703   36.1325   56.5684 C   0  0  0  0  0  0  0  0  0  0  0  0
   32.8518   36.5485   57.8457 C   0  0  0  0  0  0  0  0  0  0  0  0
   32.3367   35.6378   58.7671 C   0  0  0  0  0  0  0  0  0  0  0  0
   32.0106   36.0626   60.0952 C   0  0  0  0  0  0  0  0  0  0  0  0
   31.7518   36.3995   61.1489 N   0  0  0  0  0  0  0  0  0  0  0  0
   32.1398   34.2968   58.3831 C   0  0  0  0  0  0  0  0  0  0  0  0
   31.6110   33.3495   59.3179 C   0  0  0  0  0  0  0  0  0  0  0  0
   31.1917   32.5981   60.0594 N   0  0  0  0  0  0  0  0  0  0  0  0
   32.4624   33.8982   57.0866 C   0  0  0  0  0  0  0  0  0  0  0  0
   35.6456   36.9861   52.6409 H   0  0  0  0  0  0  0  0  0  0  0  0
   34.6331   38.0798   53.6142 H   0  0  0  0  0  0  0  0  0  0  0  0
   36.3102   37.7451   54.1074 H   0  0  0  0  0  0  0  0  0  0  0  0
   32.4246   33.9980   54.2952 H   0  0  0  0  0  0  0  0  0  0  0  0
   35.3986   30.8596   54.4780 H   0  0  0  0  0  0  0  0  0  0  0  0
   36.0415   31.5563   55.9846 H   0  0  0  0  0  0  0  0  0  0  0  0
   34.8156   30.2676   56.0520 H   0  0  0  0  0  0  0  0  0  0  0  0
   33.5735   36.8398   55.8590 H   0  0  0  0  0  0  0  0  0  0  0  0
   33.0061   37.5782   58.1326 H   0  0  0  0  0  0  0  0  0  0  0  0
   32.3139   32.8721   56.7843 H   0  0  0  0  0  0  0  0  0  0  0  0
  1  2  1  0  0  0  0
  1 20  1  0  0  0  0
  1 21  1  0  0  0  0
  1 22  1  0  0  0  0
  2  3  1  0  0  0  0
  3  4  2  0  0  0  0
  3  5  1  0  0  0  0
  5  6  1  0  0  0  0
  5 10  1  0  0  0  0
  5 23  1  0  0  0  0
  6  7  2  0  0  0  0
  6  8  1  0  0  0  0
  8  9  1  0  0  0  0
  9 24  1  0  0  0  0
  9 25  1  0  0  0  0
  9 26  1  0  0  0  0
 10 19  2  0  0  0  0
 10 11  1  0  0  0  0
 11 12  2  0  0  0  0
 11 27  1  0  0  0  0
 12 13  1  0  0  0  0
 12 28  1  0  0  0  0
 13 14  1  0  0  0  0
 13 16  2  0  0  0  0
 14 15  3  0  0  0  0
 16 17  1  0  0  0  0
 16 19  1  0  0  0  0
 17 18  3  0  0  0  0
 19 29  1  0  0  0  0
M  END
$$$$
