ZINC000000002068      none
 OpenBabel11202420153D

 42 44  0  0  0  0  0  0  0  0999 V2000
   32.5801   38.1477   67.4110 C   0  0  0  0  0  0  0  0  0  0  0  0
   31.7164   37.8911   66.2507 N   0  0  0  0  0  0  0  0  0  0  0  0
   31.8051   38.9871   65.2756 C   0  0  0  0  0  0  0  0  0  0  0  0
   30.8341   38.7205   64.1229 C   0  0  0  0  0  0  0  0  0  0  0  0
   31.1634   37.4329   63.4957 N   0  0  0  0  0  0  0  0  0  0  0  0
   30.3422   37.1889   62.3926 C   0  0  0  0  0  0  0  0  0  0  0  0
   28.9643   37.1139   62.5534 C   0  0  0  0  0  0  0  0  0  0  0  0
   28.1554   36.8731   61.4606 C   0  0  0  0  0  0  0  0  0  0  0  0
   28.7153   36.7062   60.2071 C   0  0  0  0  0  0  0  0  0  0  0  0
   30.0863   36.7804   60.0435 C   0  0  0  0  0  0  0  0  0  0  0  0
   30.9009   37.0266   61.1315 C   0  0  0  0  0  0  0  0  0  0  0  0
   32.3945   37.1134   60.9512 C   0  0  0  0  0  0  0  0  0  0  0  0
   32.7046   37.6285   59.5692 C   0  0  0  0  0  0  0  0  0  0  0  0
   32.8675   36.7416   58.5216 C   0  0  0  0  0  0  0  0  0  0  0  0
   33.1472   37.2143   57.2530 C   0  0  0  0  0  0  0  0  0  0  0  0
   33.2738   38.5732   57.0342 C   0  0  0  0  0  0  0  0  0  0  0  0
   33.1165   39.4599   58.0830 C   0  0  0  0  0  0  0  0  0  0  0  0
   32.8317   38.9874   59.3505 C   0  0  0  0  0  0  0  0  0  0  0  0
   31.0744   36.3372   64.4711 C   0  0  0  0  0  0  0  0  0  0  0  0
   32.0457   36.6035   65.6235 C   0  0  0  0  0  0  0  0  0  0  0  0
   33.6217   38.1711   67.0904 H   0  0  0  0  0  0  0  0  0  0  0  0
   32.3152   39.1066   67.8562 H   0  0  0  0  0  0  0  0  0  0  0  0
   32.4444   37.3554   68.1472 H   0  0  0  0  0  0  0  0  0  0  0  0
   32.8221   39.0470   64.8880 H   0  0  0  0  0  0  0  0  0  0  0  0
   31.5443   39.9276   65.7606 H   0  0  0  0  0  0  0  0  0  0  0  0
   30.9194   39.5172   63.3840 H   0  0  0  0  0  0  0  0  0  0  0  0
   29.8144   38.6879   64.5066 H   0  0  0  0  0  0  0  0  0  0  0  0
   28.5263   37.2440   63.5320 H   0  0  0  0  0  0  0  0  0  0  0  0
   27.0841   36.8145   61.5849 H   0  0  0  0  0  0  0  0  0  0  0  0
   28.0804   36.5173   59.3541 H   0  0  0  0  0  0  0  0  0  0  0  0
   30.5204   36.6496   59.0633 H   0  0  0  0  0  0  0  0  0  0  0  0
   32.8112   37.7934   61.6942 H   0  0  0  0  0  0  0  0  0  0  0  0
   32.8339   36.1240   61.0772 H   0  0  0  0  0  0  0  0  0  0  0  0
   32.7726   35.6795   58.6934 H   0  0  0  0  0  0  0  0  0  0  0  0
   33.2704   36.5215   56.4336 H   0  0  0  0  0  0  0  0  0  0  0  0
   33.4959   38.9423   56.0437 H   0  0  0  0  0  0  0  0  0  0  0  0
   33.2158   40.5216   57.9121 H   0  0  0  0  0  0  0  0  0  0  0  0
   32.7089   39.6801   60.1700 H   0  0  0  0  0  0  0  0  0  0  0  0
   30.0576   36.2774   64.8591 H   0  0  0  0  0  0  0  0  0  0  0  0
   31.3344   35.3964   63.9859 H   0  0  0  0  0  0  0  0  0  0  0  0
   31.9605   35.8067   66.3624 H   0  0  0  0  0  0  0  0  0  0  0  0
   33.0654   36.6357   65.2396 H   0  0  0  0  0  0  0  0  0  0  0  0
  1  2  1  0  0  0  0
  1 21  1  0  0  0  0
  1 22  1  0  0  0  0
  1 23  1  0  0  0  0
  2 20  1  0  0  0  0
  2  3  1  0  0  0  0
  3  4  1  0  0  0  0
  3 24  1  0  0  0  0
  3 25  1  0  0  0  0
  4  5  1  0  0  0  0
  4 26  1  0  0  0  0
  4 27  1  0  0  0  0
  5  6  1  0  0  0  0
  5 19  1  0  0  0  0
  6 11  2  0  0  0  0
  6  7  1  0  0  0  0
  7  8  2  0  0  0  0
  7 28  1  0  0  0  0
  8  9  1  0  0  0  0
  8 29  1  0  0  0  0
  9 10  2  0  0  0  0
  9 30  1  0  0  0  0
 10 11  1  0  0  0  0
 10 31  1  0  0  0  0
 11 12  1  0  0  0  0
 12 13  1  0  0  0  0
 12 32  1  0  0  0  0
 12 33  1  0  0  0  0
 13 18  2  0  0  0  0
 13 14  1  0  0  0  0
 14 15  2  0  0  0  0
 14 34  1  0  0  0  0
 15 16  1  0  0  0  0
 15 35  1  0  0  0  0
 16 17  2  0  0  0  0
 16 36  1  0  0  0  0
 17 18  1  0  0  0  0
 17 37  1  0  0  0  0
 18 38  1  0  0  0  0
 19 20  1  0  0  0  0
 19 39  1  0  0  0  0
 19 40  1  0  0  0  0
 20 41  1  0  0  0  0
 20 42  1  0  0  0  0
M  END
$$$$
