ZINC000000030197      none
 OpenBabel11202420163D

 36 39  0  0  0  0  0  0  0  0999 V2000
   33.1683   33.7453   60.8493 O   0  0  0  0  0  0  0  0  0  0  0  0
   32.4127   34.6555   61.1303 C   0  0  0  0  0  0  0  0  0  0  0  0
   31.9630   34.8376   62.5243 C   0  0  0  0  0  0  0  0  0  0  0  0
   32.7000   35.6402   63.3987 C   0  0  0  0  0  0  0  0  0  0  0  0
   32.2755   35.8140   64.6977 C   0  0  0  0  0  0  0  0  0  0  0  0
   31.1223   35.1839   65.1463 C   0  0  0  0  0  0  0  0  0  0  0  0
   30.3849   34.3762   64.2797 C   0  0  0  0  0  0  0  0  0  0  0  0
   30.8024   34.2031   62.9745 C   0  0  0  0  0  0  0  0  0  0  0  0
   29.3091   33.8789   64.9576 O   0  0  0  0  0  0  0  0  0  0  0  0
   29.6181   34.0587   66.3524 C   0  0  0  0  0  0  0  0  0  0  0  0
   30.5070   35.1910   66.3633 O   0  0  0  0  0  0  0  0  0  0  0  0
   31.9857   35.4980   60.1689 N   0  0  0  0  0  0  0  0  0  0  0  0
   31.0704   36.6096   60.4761 C   0  0  0  0  0  0  0  0  0  0  0  0
   31.8089   37.9173   60.1952 C   0  0  0  0  0  0  0  0  0  0  0  0
   32.4920   37.8697   58.8538 C   0  0  0  0  0  0  0  0  0  0  0  0
   32.8473   39.0792   58.2686 C   0  0  0  0  0  0  0  0  0  0  0  0
   33.4838   39.1066   57.0454 C   0  0  0  0  0  0  0  0  0  0  0  0
   33.7803   37.9216   56.3978 C   0  0  0  0  0  0  0  0  0  0  0  0
   33.4286   36.7195   56.9762 C   0  0  0  0  0  0  0  0  0  0  0  0
   32.7821   36.6909   58.2046 C   0  0  0  0  0  0  0  0  0  0  0  0
   32.4138   35.3441   58.7744 C   0  0  0  0  0  0  0  0  0  0  0  0
   33.6002   36.1279   63.0549 H   0  0  0  0  0  0  0  0  0  0  0  0
   32.8441   36.4387   65.3707 H   0  0  0  0  0  0  0  0  0  0  0  0
   30.2323   33.5786   62.3026 H   0  0  0  0  0  0  0  0  0  0  0  0
   30.1177   33.1757   66.7507 H   0  0  0  0  0  0  0  0  0  0  0  0
   28.7134   34.2766   66.9199 H   0  0  0  0  0  0  0  0  0  0  0  0
   30.1846   36.5433   59.8443 H   0  0  0  0  0  0  0  0  0  0  0  0
   30.7795   36.5685   61.5258 H   0  0  0  0  0  0  0  0  0  0  0  0
   31.0955   38.7412   60.2051 H   0  0  0  0  0  0  0  0  0  0  0  0
   32.5563   38.0809   60.9716 H   0  0  0  0  0  0  0  0  0  0  0  0
   32.6191   40.0060   58.7741 H   0  0  0  0  0  0  0  0  0  0  0  0
   33.7538   40.0512   56.5967 H   0  0  0  0  0  0  0  0  0  0  0  0
   34.2856   37.9369   55.4434 H   0  0  0  0  0  0  0  0  0  0  0  0
   33.6573   35.7937   56.4694 H   0  0  0  0  0  0  0  0  0  0  0  0
   31.6003   34.9134   58.1907 H   0  0  0  0  0  0  0  0  0  0  0  0
   33.2795   34.6831   58.7316 H   0  0  0  0  0  0  0  0  0  0  0  0
  1  2  2  0  0  0  0
  2  3  1  0  0  0  0
  2 12  1  0  0  0  0
  3  8  2  0  0  0  0
  3  4  1  0  0  0  0
  4  5  2  0  0  0  0
  4 22  1  0  0  0  0
  5  6  1  0  0  0  0
  5 23  1  0  0  0  0
  6 11  1  0  0  0  0
  6  7  2  0  0  0  0
  7  8  1  0  0  0  0
  7  9  1  0  0  0  0
  8 24  1  0  0  0  0
  9 10  1  0  0  0  0
 10 11  1  0  0  0  0
 10 25  1  0  0  0  0
 10 26  1  0  0  0  0
 12 21  1  0  0  0  0
 12 13  1  0  0  0  0
 13 14  1  0  0  0  0
 13 27  1  0  0  0  0
 13 28  1  0  0  0  0
 14 15  1  0  0  0  0
 14 29  1  0  0  0  0
 14 30  1  0  0  0  0
 15 20  2  0  0  0  0
 15 16  1  0  0  0  0
 16 17  2  0  0  0  0
 16 31  1  0  0  0  0
 17 18  1  0  0  0  0
 17 32  1  0  0  0  0
 18 19  2  0  0  0  0
 18 33  1  0  0  0  0
 19 20  1  0  0  0  0
 19 34  1  0  0  0  0
 20 21  1  0  0  0  0
 21 35  1  0  0  0  0
 21 36  1  0  0  0  0
M  END
$$$$
