ZINC000000053855      none
 OpenBabel11202420153D

 21 22  0  0  0  0  0  0  0  0999 V2000
   32.8326   33.0066   56.1760 C   0  0  0  0  0  0  0  0  0  0  0  0
   32.6909   34.0315   57.2718 C   0  0  0  0  0  0  0  0  0  0  0  0
   32.2506   33.8028   58.4717 N   0  0  0  0  0  0  0  0  0  0  0  0
   32.2749   35.0261   59.1858 O   0  0  0  0  0  0  0  0  0  0  0  0
   32.7766   36.0203   58.3095 N   0  0  0  0  0  0  0  0  0  0  0  0
   33.0250   35.4490   57.1623 C   0  0  0  0  0  0  0  0  0  0  0  0
   33.5290   36.0827   56.0279 N   0  0  0  0  0  0  0  0  0  0  0  0
   33.8034   37.4019   56.0589 C   0  0  0  0  0  0  0  0  0  0  0  0
   33.6110   38.0397   57.0773 O   0  0  0  0  0  0  0  0  0  0  0  0
   34.3333   38.0682   54.8662 C   0  0  0  0  0  0  0  0  0  0  0  0
   34.6549   39.3935   54.7753 C   0  0  0  0  0  0  0  0  0  0  0  0
   35.1326   39.7533   53.5376 C   0  0  0  0  0  0  0  0  0  0  0  0
   35.2006   38.7591   52.6443 C   0  0  0  0  0  0  0  0  0  0  0  0
   34.6645   37.2893   53.3249 S   0  0  0  0  0  0  0  0  0  0  0  0
   33.8248   32.5578   56.2244 H   0  0  0  0  0  0  0  0  0  0  0  0
   32.0767   32.2316   56.3033 H   0  0  0  0  0  0  0  0  0  0  0  0
   32.6989   33.4890   55.2078 H   0  0  0  0  0  0  0  0  0  0  0  0
   33.6824   35.5743   55.2161 H   0  0  0  0  0  0  0  0  0  0  0  0
   34.5443   40.0889   55.5942 H   0  0  0  0  0  0  0  0  0  0  0  0
   35.4313   40.7643   53.3032 H   0  0  0  0  0  0  0  0  0  0  0  0
   35.5520   38.8714   51.6293 H   0  0  0  0  0  0  0  0  0  0  0  0
  1  2  1  0  0  0  0
  1 15  1  0  0  0  0
  1 16  1  0  0  0  0
  1 17  1  0  0  0  0
  2  6  1  0  0  0  0
  2  3  2  0  0  0  0
  3  4  1  0  0  0  0
  4  5  1  0  0  0  0
  5  6  2  0  0  0  0
  6  7  1  0  0  0  0
  7  8  1  0  0  0  0
  7 18  1  0  0  0  0
  8  9  2  0  0  0  0
  8 10  1  0  0  0  0
 10 14  1  0  0  0  0
 10 11  2  0  0  0  0
 11 12  1  0  0  0  0
 11 19  1  0  0  0  0
 12 13  2  0  0  0  0
 12 20  1  0  0  0  0
 13 14  1  0  0  0  0
 13 21  1  0  0  0  0
M  END
$$$$
