ZINC000000055207      none
 OpenBabel11202420153D

 34 35  0  0  0  0  0  0  0  0999 V2000
   33.2886   33.7022   54.5835 C   0  0  0  0  0  0  0  0  0  0  0  0
   33.4708   35.1956   54.8616 C   0  0  0  0  0  0  0  0  0  0  0  0
   32.5777   36.0029   53.9173 C   0  0  0  0  0  0  0  0  0  0  0  0
   34.9337   35.5818   54.6345 C   0  0  0  0  0  0  0  0  0  0  0  0
   33.0890   35.4911   56.2892 C   0  0  0  0  0  0  0  0  0  0  0  0
   33.1782   36.7828   56.7742 C   0  0  0  0  0  0  0  0  0  0  0  0
   32.8234   37.0572   58.0808 C   0  0  0  0  0  0  0  0  0  0  0  0
   32.3827   36.0344   58.9082 C   0  0  0  0  0  0  0  0  0  0  0  0
   32.0335   36.3018   60.1940 O   0  0  0  0  0  0  0  0  0  0  0  0
   30.7494   36.6291   60.4467 C   0  0  0  0  0  0  0  0  0  0  0  0
   29.8593   36.1825   59.7483 O   0  0  0  0  0  0  0  0  0  0  0  0
   30.4270   37.5221   61.5619 C   0  0  0  0  0  0  0  0  0  0  0  0
   29.2770   37.5028   62.2997 C   0  0  0  0  0  0  0  0  0  0  0  0
   29.3937   38.5237   63.2550 C   0  0  0  0  0  0  0  0  0  0  0  0
   30.5939   39.1145   63.0619 C   0  0  0  0  0  0  0  0  0  0  0  0
   31.2159   38.5045   62.0448 O   0  0  0  0  0  0  0  0  0  0  0  0
   32.2996   34.7381   58.4206 C   0  0  0  0  0  0  0  0  0  0  0  0
   32.6555   34.4689   57.1133 C   0  0  0  0  0  0  0  0  0  0  0  0
   32.2464   33.4271   54.7453 H   0  0  0  0  0  0  0  0  0  0  0  0
   33.5647   33.4885   53.5509 H   0  0  0  0  0  0  0  0  0  0  0  0
   33.9248   33.1271   55.2562 H   0  0  0  0  0  0  0  0  0  0  0  0
   32.7076   37.0669   54.1154 H   0  0  0  0  0  0  0  0  0  0  0  0
   32.8538   35.7893   52.8847 H   0  0  0  0  0  0  0  0  0  0  0  0
   31.5355   35.7278   54.0790 H   0  0  0  0  0  0  0  0  0  0  0  0
   35.5700   35.0068   55.3072 H   0  0  0  0  0  0  0  0  0  0  0  0
   35.2099   35.3682   53.6019 H   0  0  0  0  0  0  0  0  0  0  0  0
   35.0636   36.6459   54.8325 H   0  0  0  0  0  0  0  0  0  0  0  0
   33.5214   37.5786   56.1298 H   0  0  0  0  0  0  0  0  0  0  0  0
   32.8888   38.0672   58.4577 H   0  0  0  0  0  0  0  0  0  0  0  0
   28.4402   36.8321   62.1719 H   0  0  0  0  0  0  0  0  0  0  0  0
   28.6617   38.7883   64.0039 H   0  0  0  0  0  0  0  0  0  0  0  0
   30.9882   39.9399   63.6359 H   0  0  0  0  0  0  0  0  0  0  0  0
   31.9564   33.9403   59.0626 H   0  0  0  0  0  0  0  0  0  0  0  0
   32.5905   33.4601   56.7333 H   0  0  0  0  0  0  0  0  0  0  0  0
  1  2  1  0  0  0  0
  1 19  1  0  0  0  0
  1 20  1  0  0  0  0
  1 21  1  0  0  0  0
  2  3  1  0  0  0  0
  2  4  1  0  0  0  0
  2  5  1  0  0  0  0
  3 22  1  0  0  0  0
  3 23  1  0  0  0  0
  3 24  1  0  0  0  0
  4 25  1  0  0  0  0
  4 26  1  0  0  0  0
  4 27  1  0  0  0  0
  5 18  2  0  0  0  0
  5  6  1  0  0  0  0
  6  7  2  0  0  0  0
  6 28  1  0  0  0  0
  7  8  1  0  0  0  0
  7 29  1  0  0  0  0
  8  9  1  0  0  0  0
  8 17  2  0  0  0  0
  9 10  1  0  0  0  0
 10 11  2  0  0  0  0
 10 12  1  0  0  0  0
 12 16  1  0  0  0  0
 12 13  2  0  0  0  0
 13 14  1  0  0  0  0
 13 30  1  0  0  0  0
 14 15  2  0  0  0  0
 14 31  1  0  0  0  0
 15 16  1  0  0  0  0
 15 32  1  0  0  0  0
 17 18  1  0  0  0  0
 17 33  1  0  0  0  0
 18 34  1  0  0  0  0
M  END
$$$$
