ZINC000000054524      none
 OpenBabel11202420153D

 32 34  0  0  0  0  0  0  0  0999 V2000
   33.5869   39.7635   57.4188 C   0  0  0  0  0  0  0  0  0  0  0  0
   33.6811   38.4601   56.8405 O   0  0  0  0  0  0  0  0  0  0  0  0
   33.0613   37.4454   57.5008 C   0  0  0  0  0  0  0  0  0  0  0  0
   33.1127   36.1553   56.9941 C   0  0  0  0  0  0  0  0  0  0  0  0
   32.4828   35.1245   57.6635 C   0  0  0  0  0  0  0  0  0  0  0  0
   31.7982   35.3799   58.8443 C   0  0  0  0  0  0  0  0  0  0  0  0
   31.1597   34.3361   59.5232 N   0  0  0  0  0  0  0  0  0  0  0  0
   31.9803   33.4718   60.6730 S   0  0  0  0  0  0  0  0  0  0  0  0
   33.3616   33.6119   60.3704 O   0  0  0  0  0  0  0  0  0  0  0  0
   31.3295   32.2122   60.7686 O   0  0  0  0  0  0  0  0  0  0  0  0
   31.7242   34.2825   62.2162 C   0  0  0  0  0  0  0  0  0  0  0  0
   32.2956   35.4883   62.4523 C   0  0  0  0  0  0  0  0  0  0  0  0
   32.1100   36.1608   63.6605 C   0  0  0  0  0  0  0  0  0  0  0  0
   31.3591   35.6339   64.6577 C   0  0  0  0  0  0  0  0  0  0  0  0
   30.7311   34.3754   64.4802 C   0  0  0  0  0  0  0  0  0  0  0  0
   29.9586   33.6686   65.2895 N   0  0  0  0  0  0  0  0  0  0  0  0
   29.5400   32.3480   64.5823 S   0  0  0  0  0  0  0  0  0  0  0  0
   30.2682   32.5228   63.2191 N   0  0  0  0  0  0  0  0  0  0  0  0
   30.9205   33.6740   63.2131 C   0  0  0  0  0  0  0  0  0  0  0  0
   31.7427   36.6727   59.3480 C   0  0  0  0  0  0  0  0  0  0  0  0
   32.3776   37.7015   58.6801 C   0  0  0  0  0  0  0  0  0  0  0  0
   34.0267   39.7512   58.4160 H   0  0  0  0  0  0  0  0  0  0  0  0
   34.1230   40.4778   56.7940 H   0  0  0  0  0  0  0  0  0  0  0  0
   32.5390   40.0556   57.4873 H   0  0  0  0  0  0  0  0  0  0  0  0
   33.6453   35.9568   56.0758 H   0  0  0  0  0  0  0  0  0  0  0  0
   32.5224   34.1201   57.2685 H   0  0  0  0  0  0  0  0  0  0  0  0
   30.2364   34.1186   59.3201 H   0  0  0  0  0  0  0  0  0  0  0  0
   32.9054   35.9419   61.6850 H   0  0  0  0  0  0  0  0  0  0  0  0
   32.5797   37.1223   63.8059 H   0  0  0  0  0  0  0  0  0  0  0  0
   31.2356   36.1738   65.5848 H   0  0  0  0  0  0  0  0  0  0  0  0
   31.2064   36.8730   60.2638 H   0  0  0  0  0  0  0  0  0  0  0  0
   32.3380   38.7063   59.0739 H   0  0  0  0  0  0  0  0  0  0  0  0
  1  2  1  0  0  0  0
  1 22  1  0  0  0  0
  1 23  1  0  0  0  0
  1 24  1  0  0  0  0
  2  3  1  0  0  0  0
  3 21  2  0  0  0  0
  3  4  1  0  0  0  0
  4  5  2  0  0  0  0
  4 25  1  0  0  0  0
  5  6  1  0  0  0  0
  5 26  1  0  0  0  0
  6  7  1  0  0  0  0
  6 20  2  0  0  0  0
  7  8  1  0  0  0  0
  7 27  1  0  0  0  0
  8  9  2  0  0  0  0
  8 10  2  0  0  0  0
  8 11  1  0  0  0  0
 11 19  1  0  0  0  0
 11 12  2  0  0  0  0
 12 13  1  0  0  0  0
 12 28  1  0  0  0  0
 13 14  2  0  0  0  0
 13 29  1  0  0  0  0
 14 15  1  0  0  0  0
 14 30  1  0  0  0  0
 15 19  1  0  0  0  0
 15 16  2  0  0  0  0
 16 17  1  0  0  0  0
 17 18  1  0  0  0  0
 18 19  2  0  0  0  0
 20 21  1  0  0  0  0
 20 31  1  0  0  0  0
 21 32  1  0  0  0  0
M  END
$$$$
