ZINC000000053212      none
 OpenBabel11202420153D

 27 28  0  0  0  0  0  0  0  0999 V2000
   31.9801   33.9887   61.4446 C   0  0  0  0  0  0  0  0  0  0  0  0
   32.2131   35.0945   62.4417 C   0  0  0  0  0  0  0  0  0  0  0  0
   33.0077   35.0320   63.4750 N   0  0  0  0  0  0  0  0  0  0  0  0
   32.9650   36.1976   64.1371 C   0  0  0  0  0  0  0  0  0  0  0  0
   32.1114   37.0135   63.4895 C   0  0  0  0  0  0  0  0  0  0  0  0
   31.7571   38.3999   63.8683 N   0  0  0  0  0  0  0  0  0  0  0  0
   32.2565   38.9079   64.8563 O   0  0  0  0  0  0  0  0  0  0  0  0
   30.9699   39.0345   63.1892 O   0  0  0  0  0  0  0  0  0  0  0  0
   31.6300   36.3124   62.4170 N   0  0  0  0  0  0  0  0  0  0  0  0
   30.5393   36.8570   61.2963 S   0  0  0  0  0  0  0  0  0  0  0  0
   29.8235   35.7154   60.8451 O   0  0  0  0  0  0  0  0  0  0  0  0
   29.9082   37.9935   61.8700 O   0  0  0  0  0  0  0  0  0  0  0  0
   31.4609   37.4445   59.9142 C   0  0  0  0  0  0  0  0  0  0  0  0
   31.8580   38.7676   59.8605 C   0  0  0  0  0  0  0  0  0  0  0  0
   32.5858   39.2277   58.7793 C   0  0  0  0  0  0  0  0  0  0  0  0
   32.9072   38.3665   57.7454 C   0  0  0  0  0  0  0  0  0  0  0  0
   33.8147   38.9455   56.3834 Cl  0  0  0  0  0  0  0  0  0  0  0  0
   32.5047   37.0439   57.7969 C   0  0  0  0  0  0  0  0  0  0  0  0
   31.7819   36.5836   58.8813 C   0  0  0  0  0  0  0  0  0  0  0  0
   31.1494   33.3673   61.7789 H   0  0  0  0  0  0  0  0  0  0  0  0
   31.7427   34.4203   60.4723 H   0  0  0  0  0  0  0  0  0  0  0  0
   32.8797   33.3788   61.3616 H   0  0  0  0  0  0  0  0  0  0  0  0
   33.5177   36.4394   65.0328 H   0  0  0  0  0  0  0  0  0  0  0  0
   31.6032   39.4409   60.6657 H   0  0  0  0  0  0  0  0  0  0  0  0
   32.8997   40.2603   58.7396 H   0  0  0  0  0  0  0  0  0  0  0  0
   32.7550   36.3713   56.9898 H   0  0  0  0  0  0  0  0  0  0  0  0
   31.4672   35.5513   58.9215 H   0  0  0  0  0  0  0  0  0  0  0  0
  1  2  1  0  0  0  0
  1 20  1  0  0  0  0
  1 21  1  0  0  0  0
  1 22  1  0  0  0  0
  2  9  1  0  0  0  0
  2  3  2  0  0  0  0
  3  4  1  0  0  0  0
  4  5  2  0  0  0  0
  4 23  1  0  0  0  0
  5  6  1  0  0  0  0
  5  9  1  0  0  0  0
  6  7  2  0  0  0  0
  6  8  2  0  0  0  0
  9 10  1  0  0  0  0
 10 11  2  0  0  0  0
 10 12  2  0  0  0  0
 10 13  1  0  0  0  0
 13 19  2  0  0  0  0
 13 14  1  0  0  0  0
 14 15  2  0  0  0  0
 14 24  1  0  0  0  0
 15 16  1  0  0  0  0
 15 25  1  0  0  0  0
 16 17  1  0  0  0  0
 16 18  2  0  0  0  0
 18 19  1  0  0  0  0
 18 26  1  0  0  0  0
 19 27  1  0  0  0  0
M  END
$$$$
