ZINC000000031542      none
 OpenBabel11202420163D

 40 42  0  0  0  0  0  0  0  0999 V2000
   32.3908   36.3643   54.9834 O   0  0  0  0  0  0  0  0  0  0  0  0
   33.1873   35.6618   55.5596 C   0  0  0  0  0  0  0  0  0  0  0  0
   33.8802   36.1478   56.6020 O   0  0  0  0  0  0  0  0  0  0  0  0
   33.1624   36.5826   57.6713 C   0  0  0  0  0  0  0  0  0  0  0  0
   32.3287   35.7067   58.3511 C   0  0  0  0  0  0  0  0  0  0  0  0
   31.6007   36.1510   59.4378 C   0  0  0  0  0  0  0  0  0  0  0  0
   31.7025   37.4675   59.8481 C   0  0  0  0  0  0  0  0  0  0  0  0
   30.9068   37.9496   61.0336 C   0  0  0  0  0  0  0  0  0  0  0  0
   29.4463   36.8835   61.3134 S   0  0  0  0  0  0  0  0  0  0  0  0
   29.3558   36.8310   63.1262 C   0  0  0  0  0  0  0  0  0  0  0  0
   30.4440   37.7133   63.7483 C   0  0  0  0  0  0  0  0  0  0  0  0
   31.8582   37.7331   62.5899 S   0  0  0  0  0  0  0  0  0  0  0  0
   32.5288   38.3437   59.1690 C   0  0  0  0  0  0  0  0  0  0  0  0
   33.2629   37.9030   58.0848 C   0  0  0  0  0  0  0  0  0  0  0  0
   33.4028   34.2402   55.1086 C   0  0  0  0  0  0  0  0  0  0  0  0
   34.4546   33.5763   55.9997 C   0  0  0  0  0  0  0  0  0  0  0  0
   34.6735   32.1330   55.5417 C   0  0  0  0  0  0  0  0  0  0  0  0
   35.1571   32.1263   54.0902 C   0  0  0  0  0  0  0  0  0  0  0  0
   34.1054   32.7900   53.1991 C   0  0  0  0  0  0  0  0  0  0  0  0
   33.8864   34.2334   53.6570 C   0  0  0  0  0  0  0  0  0  0  0  0
   32.2491   34.6782   58.0312 H   0  0  0  0  0  0  0  0  0  0  0  0
   30.9513   35.4696   59.9672 H   0  0  0  0  0  0  0  0  0  0  0  0
   30.6080   38.9897   60.9038 H   0  0  0  0  0  0  0  0  0  0  0  0
   28.3773   37.1880   63.4474 H   0  0  0  0  0  0  0  0  0  0  0  0
   29.4911   35.8031   63.4629 H   0  0  0  0  0  0  0  0  0  0  0  0
   30.0651   38.7256   63.8884 H   0  0  0  0  0  0  0  0  0  0  0  0
   30.7566   37.2965   64.7056 H   0  0  0  0  0  0  0  0  0  0  0  0
   32.6031   39.3726   59.4886 H   0  0  0  0  0  0  0  0  0  0  0  0
   33.9112   38.5868   57.5573 H   0  0  0  0  0  0  0  0  0  0  0  0
   32.4648   33.6896   55.1817 H   0  0  0  0  0  0  0  0  0  0  0  0
   35.3926   34.1270   55.9266 H   0  0  0  0  0  0  0  0  0  0  0  0
   34.1102   33.5811   57.0337 H   0  0  0  0  0  0  0  0  0  0  0  0
   33.7357   31.5824   55.6148 H   0  0  0  0  0  0  0  0  0  0  0  0
   35.4229   31.6601   56.1765 H   0  0  0  0  0  0  0  0  0  0  0  0
   35.3131   31.0981   53.7639 H   0  0  0  0  0  0  0  0  0  0  0  0
   36.0951   32.6769   54.0171 H   0  0  0  0  0  0  0  0  0  0  0  0
   33.1675   32.2395   53.2721 H   0  0  0  0  0  0  0  0  0  0  0  0
   34.4498   32.7853   52.1650 H   0  0  0  0  0  0  0  0  0  0  0  0
   33.1371   34.7063   53.0223 H   0  0  0  0  0  0  0  0  0  0  0  0
   34.8243   34.7841   53.5839 H   0  0  0  0  0  0  0  0  0  0  0  0
  1  2  2  0  0  0  0
  2  3  1  0  0  0  0
  2 15  1  0  0  0  0
  3  4  1  0  0  0  0
  4 14  2  0  0  0  0
  4  5  1  0  0  0  0
  5  6  2  0  0  0  0
  5 21  1  0  0  0  0
  6  7  1  0  0  0  0
  6 22  1  0  0  0  0
  7  8  1  0  0  0  0
  7 13  2  0  0  0  0
  8 12  1  0  0  0  0
  8  9  1  0  0  0  0
  8 23  1  0  0  0  0
  9 10  1  0  0  0  0
 10 11  1  0  0  0  0
 10 24  1  0  0  0  0
 10 25  1  0  0  0  0
 11 12  1  0  0  0  0
 11 26  1  0  0  0  0
 11 27  1  0  0  0  0
 13 14  1  0  0  0  0
 13 28  1  0  0  0  0
 14 29  1  0  0  0  0
 15 20  1  0  0  0  0
 15 16  1  0  0  0  0
 15 30  1  0  0  0  0
 16 17  1  0  0  0  0
 16 31  1  0  0  0  0
 16 32  1  0  0  0  0
 17 18  1  0  0  0  0
 17 33  1  0  0  0  0
 17 34  1  0  0  0  0
 18 19  1  0  0  0  0
 18 35  1  0  0  0  0
 18 36  1  0  0  0  0
 19 20  1  0  0  0  0
 19 37  1  0  0  0  0
 19 38  1  0  0  0  0
 20 39  1  0  0  0  0
 20 40  1  0  0  0  0
M  END
$$$$
