ZINC000000053613      none
 OpenBabel11202420153D

 36 38  0  0  0  0  0  0  0  0999 V2000
   32.6483   33.3152   55.4248 Cl  0  0  0  0  0  0  0  0  0  0  0  0
   32.6026   34.4162   56.7662 C   0  0  0  0  0  0  0  0  0  0  0  0
   32.0970   34.0094   57.9879 C   0  0  0  0  0  0  0  0  0  0  0  0
   32.0794   34.9266   59.0395 C   0  0  0  0  0  0  0  0  0  0  0  0
   31.5820   34.5633   60.2805 N   0  0  0  0  0  0  0  0  0  0  0  0
   31.5830   35.7074   61.2038 C   0  0  0  0  0  0  0  0  0  0  0  0
   30.9720   35.2780   62.5403 C   0  0  0  0  0  0  0  0  0  0  0  0
   31.7045   34.1640   63.0577 O   0  0  0  0  0  0  0  0  0  0  0  0
   31.7236   33.0318   62.1843 C   0  0  0  0  0  0  0  0  0  0  0  0
   32.3423   33.4384   60.8442 C   0  0  0  0  0  0  0  0  0  0  0  0
   32.5513   36.1528   58.8345 N   0  0  0  0  0  0  0  0  0  0  0  0
   33.0226   36.5052   57.6481 C   0  0  0  0  0  0  0  0  0  0  0  0
   33.5017   37.7910   57.4675 N   0  0  0  0  0  0  0  0  0  0  0  0
   33.3918   38.2012   56.0599 C   0  0  0  0  0  0  0  0  0  0  0  0
   33.9852   39.6029   55.8948 C   0  0  0  0  0  0  0  0  0  0  0  0
   33.3145   40.5068   56.7770 O   0  0  0  0  0  0  0  0  0  0  0  0
   33.4027   40.1375   58.1558 C   0  0  0  0  0  0  0  0  0  0  0  0
   32.8025   38.7417   58.3442 C   0  0  0  0  0  0  0  0  0  0  0  0
   33.0521   35.6563   56.6314 N   0  0  0  0  0  0  0  0  0  0  0  0
   31.7247   33.0049   58.1249 H   0  0  0  0  0  0  0  0  0  0  0  0
   32.6069   36.0453   61.3636 H   0  0  0  0  0  0  0  0  0  0  0  0
   30.9933   36.5192   60.7781 H   0  0  0  0  0  0  0  0  0  0  0  0
   29.9314   34.9910   62.3893 H   0  0  0  0  0  0  0  0  0  0  0  0
   31.0221   36.1065   63.2470 H   0  0  0  0  0  0  0  0  0  0  0  0
   30.7048   32.6794   62.0229 H   0  0  0  0  0  0  0  0  0  0  0  0
   32.3175   32.2355   62.6326 H   0  0  0  0  0  0  0  0  0  0  0  0
   32.3069   32.5939   60.1558 H   0  0  0  0  0  0  0  0  0  0  0  0
   33.3785   33.7397   60.9973 H   0  0  0  0  0  0  0  0  0  0  0  0
   32.3423   38.2132   55.7658 H   0  0  0  0  0  0  0  0  0  0  0  0
   33.9386   37.4982   55.4315 H   0  0  0  0  0  0  0  0  0  0  0  0
   33.8538   39.9347   54.8649 H   0  0  0  0  0  0  0  0  0  0  0  0
   35.0477   39.5792   56.1368 H   0  0  0  0  0  0  0  0  0  0  0  0
   34.4481   40.1288   58.4641 H   0  0  0  0  0  0  0  0  0  0  0  0
   32.8506   40.8564   58.7612 H   0  0  0  0  0  0  0  0  0  0  0  0
   32.9191   38.4324   59.3828 H   0  0  0  0  0  0  0  0  0  0  0  0
   31.7433   38.7633   58.0875 H   0  0  0  0  0  0  0  0  0  0  0  0
  1  2  1  0  0  0  0
  2 19  2  0  0  0  0
  2  3  1  0  0  0  0
  3  4  2  0  0  0  0
  3 20  1  0  0  0  0
  4  5  1  0  0  0  0
  4 11  1  0  0  0  0
  5 10  1  0  0  0  0
  5  6  1  0  0  0  0
  6  7  1  0  0  0  0
  6 21  1  0  0  0  0
  6 22  1  0  0  0  0
  7  8  1  0  0  0  0
  7 23  1  0  0  0  0
  7 24  1  0  0  0  0
  8  9  1  0  0  0  0
  9 10  1  0  0  0  0
  9 25  1  0  0  0  0
  9 26  1  0  0  0  0
 10 27  1  0  0  0  0
 10 28  1  0  0  0  0
 11 12  2  0  0  0  0
 12 13  1  0  0  0  0
 12 19  1  0  0  0  0
 13 18  1  0  0  0  0
 13 14  1  0  0  0  0
 14 15  1  0  0  0  0
 14 29  1  0  0  0  0
 14 30  1  0  0  0  0
 15 16  1  0  0  0  0
 15 31  1  0  0  0  0
 15 32  1  0  0  0  0
 16 17  1  0  0  0  0
 17 18  1  0  0  0  0
 17 33  1  0  0  0  0
 17 34  1  0  0  0  0
 18 35  1  0  0  0  0
 18 36  1  0  0  0  0
M  END
$$$$
