ZINC000000035523      none
 OpenBabel11202420153D

 25 26  0  0  0  0  0  0  0  0999 V2000
   30.4090   35.3205   63.4289 C   0  0  0  0  0  0  0  0  0  0  0  0
   29.3221   35.3895   62.5038 O   0  0  0  0  0  0  0  0  0  0  0  0
   29.0564   36.7064   62.0165 C   0  0  0  0  0  0  0  0  0  0  0  0
   30.2429   37.2212   61.3285 N   0  0  0  0  0  0  0  0  0  0  0  0
   30.5455   37.0810   59.9660 N   0  0  0  0  0  0  0  0  0  0  0  0
   31.6826   37.6760   59.7484 C   0  0  0  0  0  0  0  0  0  0  0  0
   32.3652   37.7701   58.4399 C   0  0  0  0  0  0  0  0  0  0  0  0
   32.6373   39.0188   57.8794 C   0  0  0  0  0  0  0  0  0  0  0  0
   33.2742   39.0997   56.6585 C   0  0  0  0  0  0  0  0  0  0  0  0
   33.6436   37.9456   55.9890 C   0  0  0  0  0  0  0  0  0  0  0  0
   33.3771   36.7051   56.5378 C   0  0  0  0  0  0  0  0  0  0  0  0
   32.7454   36.6098   57.7624 C   0  0  0  0  0  0  0  0  0  0  0  0
   32.4184   35.0514   58.4540 Cl  0  0  0  0  0  0  0  0  0  0  0  0
   32.1364   38.1989   60.9084 O   0  0  0  0  0  0  0  0  0  0  0  0
   31.2542   37.9219   61.8840 C   0  0  0  0  0  0  0  0  0  0  0  0
   31.3886   38.3743   63.5296 S   0  0  0  0  0  0  0  0  0  0  0  0
   30.1897   35.9455   64.2945 H   0  0  0  0  0  0  0  0  0  0  0  0
   30.5466   34.2884   63.7514 H   0  0  0  0  0  0  0  0  0  0  0  0
   31.3199   35.6748   62.9464 H   0  0  0  0  0  0  0  0  0  0  0  0
   28.8089   37.3603   62.8528 H   0  0  0  0  0  0  0  0  0  0  0  0
   28.2182   36.6738   61.3203 H   0  0  0  0  0  0  0  0  0  0  0  0
   32.3499   39.9199   58.4006 H   0  0  0  0  0  0  0  0  0  0  0  0
   33.4851   40.0657   56.2240 H   0  0  0  0  0  0  0  0  0  0  0  0
   34.1415   38.0143   55.0330 H   0  0  0  0  0  0  0  0  0  0  0  0
   33.6677   35.8089   56.0100 H   0  0  0  0  0  0  0  0  0  0  0  0
  1  2  1  0  0  0  0
  1 17  1  0  0  0  0
  1 18  1  0  0  0  0
  1 19  1  0  0  0  0
  2  3  1  0  0  0  0
  3  4  1  0  0  0  0
  3 20  1  0  0  0  0
  3 21  1  0  0  0  0
  4 15  1  0  0  0  0
  4  5  1  0  0  0  0
  5  6  2  0  0  0  0
  6  7  1  0  0  0  0
  6 14  1  0  0  0  0
  7 12  2  0  0  0  0
  7  8  1  0  0  0  0
  8  9  2  0  0  0  0
  8 22  1  0  0  0  0
  9 10  1  0  0  0  0
  9 23  1  0  0  0  0
 10 11  2  0  0  0  0
 10 24  1  0  0  0  0
 11 12  1  0  0  0  0
 11 25  1  0  0  0  0
 12 13  1  0  0  0  0
 14 15  1  0  0  0  0
 15 16  2  0  0  0  0
M  END
$$$$
