ZINC000000002334      none
 OpenBabel11202420153D

 34 36  0  0  0  0  0  0  0  0999 V2000
   31.3394   33.5239   62.3262 C   0  0  0  0  0  0  0  0  0  0  0  0
   31.1362   33.7555   60.8941 N   0  0  0  0  0  0  0  0  0  0  0  0
   32.0793   33.3752   60.0094 C   0  0  0  0  0  0  0  0  0  0  0  0
   33.0961   32.8413   60.3991 O   0  0  0  0  0  0  0  0  0  0  0  0
   31.8702   33.6134   58.5361 C   0  0  0  0  0  0  0  0  0  0  0  0
   32.4078   34.9269   58.1727 N   0  0  0  0  0  0  0  0  0  0  0  0
   33.1819   35.2125   57.0795 C   0  0  0  0  0  0  0  0  0  0  0  0
   33.6152   34.2291   56.0637 C   0  0  0  0  0  0  0  0  0  0  0  0
   34.8181   33.5397   56.2244 C   0  0  0  0  0  0  0  0  0  0  0  0
   35.2148   32.6203   55.2760 C   0  0  0  0  0  0  0  0  0  0  0  0
   34.4272   32.3881   54.1607 C   0  0  0  0  0  0  0  0  0  0  0  0
   34.9360   31.2337   52.9681 Cl  0  0  0  0  0  0  0  0  0  0  0  0
   33.2354   33.0730   53.9933 C   0  0  0  0  0  0  0  0  0  0  0  0
   32.8258   33.9910   54.9377 C   0  0  0  0  0  0  0  0  0  0  0  0
   33.4811   36.4883   57.0694 N   0  0  0  0  0  0  0  0  0  0  0  0
   32.9223   37.0918   58.1450 C   0  0  0  0  0  0  0  0  0  0  0  0
   32.9169   38.4083   58.6205 C   0  0  0  0  0  0  0  0  0  0  0  0
   32.2247   38.6781   59.7852 C   0  0  0  0  0  0  0  0  0  0  0  0
   31.5638   37.6515   60.4416 C   0  0  0  0  0  0  0  0  0  0  0  0
   31.5806   36.4186   59.9783 N   0  0  0  0  0  0  0  0  0  0  0  0
   32.2275   36.1038   58.8675 C   0  0  0  0  0  0  0  0  0  0  0  0
   31.4560   32.4556   62.5086 H   0  0  0  0  0  0  0  0  0  0  0  0
   32.2362   34.0487   62.6555 H   0  0  0  0  0  0  0  0  0  0  0  0
   30.4771   33.8951   62.8802 H   0  0  0  0  0  0  0  0  0  0  0  0
   30.3230   34.1825   60.5823 H   0  0  0  0  0  0  0  0  0  0  0  0
   30.8043   33.5822   58.3107 H   0  0  0  0  0  0  0  0  0  0  0  0
   32.3849   32.8398   57.9663 H   0  0  0  0  0  0  0  0  0  0  0  0
   35.4352   33.7233   57.0915 H   0  0  0  0  0  0  0  0  0  0  0  0
   36.1435   32.0835   55.4011 H   0  0  0  0  0  0  0  0  0  0  0  0
   32.6255   32.8882   53.1214 H   0  0  0  0  0  0  0  0  0  0  0  0
   31.8959   34.5244   54.8062 H   0  0  0  0  0  0  0  0  0  0  0  0
   33.4358   39.1925   58.0890 H   0  0  0  0  0  0  0  0  0  0  0  0
   32.1983   39.6824   60.1817 H   0  0  0  0  0  0  0  0  0  0  0  0
   31.0243   37.8669   61.3520 H   0  0  0  0  0  0  0  0  0  0  0  0
  1  2  1  0  0  0  0
  1 22  1  0  0  0  0
  1 23  1  0  0  0  0
  1 24  1  0  0  0  0
  2  3  1  0  0  0  0
  2 25  1  0  0  0  0
  3  4  2  0  0  0  0
  3  5  1  0  0  0  0
  5  6  1  0  0  0  0
  5 26  1  0  0  0  0
  5 27  1  0  0  0  0
  6 21  1  0  0  0  0
  6  7  1  0  0  0  0
  7  8  1  0  0  0  0
  7 15  2  0  0  0  0
  8 14  2  0  0  0  0
  8  9  1  0  0  0  0
  9 10  2  0  0  0  0
  9 28  1  0  0  0  0
 10 11  1  0  0  0  0
 10 29  1  0  0  0  0
 11 12  1  0  0  0  0
 11 13  2  0  0  0  0
 13 14  1  0  0  0  0
 13 30  1  0  0  0  0
 14 31  1  0  0  0  0
 15 16  1  0  0  0  0
 16 21  2  0  0  0  0
 16 17  1  0  0  0  0
 17 18  2  0  0  0  0
 17 32  1  0  0  0  0
 18 19  1  0  0  0  0
 18 33  1  0  0  0  0
 19 20  2  0  0  0  0
 19 34  1  0  0  0  0
 20 21  1  0  0  0  0
M  END
$$$$
