ZINC000000009766      none
 OpenBabel11202420153D

 33 34  0  0  0  0  0  0  0  0999 V2000
   31.3433   40.0768   67.1525 N   0  0  0  0  0  0  0  0  0  0  0  0
   30.9945   39.6108   65.9369 C   0  0  0  0  0  0  0  0  0  0  0  0
   29.8682   39.7835   65.5216 O   0  0  0  0  0  0  0  0  0  0  0  0
   32.0042   38.8755   65.0937 C   0  0  0  0  0  0  0  0  0  0  0  0
   31.9219   37.1012   65.4620 S   0  0  0  0  0  0  0  0  0  0  0  0
   30.4871   36.5506   64.4984 C   0  0  0  0  0  0  0  0  0  0  0  0
   30.8908   36.3632   63.0586 C   0  0  0  0  0  0  0  0  0  0  0  0
   31.8812   35.4562   62.7308 C   0  0  0  0  0  0  0  0  0  0  0  0
   32.2482   35.2809   61.4097 C   0  0  0  0  0  0  0  0  0  0  0  0
   31.6320   36.0202   60.4172 C   0  0  0  0  0  0  0  0  0  0  0  0
   30.6454   36.9310   60.7456 C   0  0  0  0  0  0  0  0  0  0  0  0
   30.2748   37.1026   62.0661 C   0  0  0  0  0  0  0  0  0  0  0  0
   29.9816   35.2434   65.0524 C   0  0  0  0  0  0  0  0  0  0  0  0
   30.1332   34.9575   66.3962 C   0  0  0  0  0  0  0  0  0  0  0  0
   29.6652   33.7605   66.9054 C   0  0  0  0  0  0  0  0  0  0  0  0
   29.0543   32.8450   66.0677 C   0  0  0  0  0  0  0  0  0  0  0  0
   28.9082   33.1286   64.7235 C   0  0  0  0  0  0  0  0  0  0  0  0
   29.3715   34.3278   64.2154 C   0  0  0  0  0  0  0  0  0  0  0  0
   32.2442   39.9388   67.4847 H   0  0  0  0  0  0  0  0  0  0  0  0
   30.6934   40.5500   67.6953 H   0  0  0  0  0  0  0  0  0  0  0  0
   33.0041   39.2472   65.3175 H   0  0  0  0  0  0  0  0  0  0  0  0
   31.7838   39.0382   64.0386 H   0  0  0  0  0  0  0  0  0  0  0  0
   29.6985   37.3005   64.5599 H   0  0  0  0  0  0  0  0  0  0  0  0
   32.3656   34.8819   63.5066 H   0  0  0  0  0  0  0  0  0  0  0  0
   33.0192   34.5696   61.1532 H   0  0  0  0  0  0  0  0  0  0  0  0
   31.9219   35.8865   59.3855 H   0  0  0  0  0  0  0  0  0  0  0  0
   30.1643   37.5089   59.9703 H   0  0  0  0  0  0  0  0  0  0  0  0
   29.5041   37.8144   62.3226 H   0  0  0  0  0  0  0  0  0  0  0  0
   30.6138   35.6710   67.0493 H   0  0  0  0  0  0  0  0  0  0  0  0
   29.7803   33.5388   67.9561 H   0  0  0  0  0  0  0  0  0  0  0  0
   28.6922   31.9078   66.4642 H   0  0  0  0  0  0  0  0  0  0  0  0
   28.4319   32.4131   64.0697 H   0  0  0  0  0  0  0  0  0  0  0  0
   29.2570   34.5493   63.1646 H   0  0  0  0  0  0  0  0  0  0  0  0
  1  2  1  0  0  0  0
  1 19  1  0  0  0  0
  1 20  1  0  0  0  0
  2  3  2  0  0  0  0
  2  4  1  0  0  0  0
  4  5  1  0  0  0  0
  4 21  1  0  0  0  0
  4 22  1  0  0  0  0
  5  6  1  0  0  0  0
  6  7  1  0  0  0  0
  6 13  1  0  0  0  0
  6 23  1  0  0  0  0
  7 12  2  0  0  0  0
  7  8  1  0  0  0  0
  8  9  2  0  0  0  0
  8 24  1  0  0  0  0
  9 10  1  0  0  0  0
  9 25  1  0  0  0  0
 10 11  2  0  0  0  0
 10 26  1  0  0  0  0
 11 12  1  0  0  0  0
 11 27  1  0  0  0  0
 12 28  1  0  0  0  0
 13 18  2  0  0  0  0
 13 14  1  0  0  0  0
 14 15  2  0  0  0  0
 14 29  1  0  0  0  0
 15 16  1  0  0  0  0
 15 30  1  0  0  0  0
 16 17  2  0  0  0  0
 16 31  1  0  0  0  0
 17 18  1  0  0  0  0
 17 32  1  0  0  0  0
 18 33  1  0  0  0  0
M  END
$$$$
