ZINC000000033341      none
 OpenBabel11202420153D

 25 26  0  0  0  0  0  0  0  0999 V2000
   29.6705   35.7955   61.2489 C   0  0  0  0  0  0  0  0  0  0  0  0
   30.4738   36.5748   60.5681 C   0  0  0  0  0  0  0  0  0  0  0  0
   31.9486   36.2704   60.5101 C   0  0  0  0  0  0  0  0  0  0  0  0
   32.3602   36.0507   59.0771 C   0  0  0  0  0  0  0  0  0  0  0  0
   32.3133   34.7795   58.5276 C   0  0  0  0  0  0  0  0  0  0  0  0
   31.9002   33.7328   59.2868 O   0  0  0  0  0  0  0  0  0  0  0  0
   32.6921   34.5659   57.2040 C   0  0  0  0  0  0  0  0  0  0  0  0
   33.1147   35.6072   56.4292 C   0  0  0  0  0  0  0  0  0  0  0  0
   33.1688   36.8975   56.9680 C   0  0  0  0  0  0  0  0  0  0  0  0
   33.6184   38.0334   56.1604 C   0  0  0  0  0  0  0  0  0  0  0  0
   33.6482   39.2614   56.7406 C   0  0  0  0  0  0  0  0  0  0  0  0
   33.2518   39.4116   58.0854 C   0  0  0  0  0  0  0  0  0  0  0  0
   33.2830   40.5182   58.5931 O   0  0  0  0  0  0  0  0  0  0  0  0
   32.8402   38.3664   58.8201 O   0  0  0  0  0  0  0  0  0  0  0  0
   32.7873   37.1196   58.3046 C   0  0  0  0  0  0  0  0  0  0  0  0
   28.6135   36.0136   61.2903 H   0  0  0  0  0  0  0  0  0  0  0  0
   30.0650   34.9349   61.7686 H   0  0  0  0  0  0  0  0  0  0  0  0
   30.0792   37.4353   60.0484 H   0  0  0  0  0  0  0  0  0  0  0  0
   32.1570   35.3713   61.0900 H   0  0  0  0  0  0  0  0  0  0  0  0
   32.5091   37.1082   60.9248 H   0  0  0  0  0  0  0  0  0  0  0  0
   31.8996   32.8853   58.8213 H   0  0  0  0  0  0  0  0  0  0  0  0
   32.6511   33.5700   56.7883 H   0  0  0  0  0  0  0  0  0  0  0  0
   33.4072   35.4356   55.4039 H   0  0  0  0  0  0  0  0  0  0  0  0
   33.9186   37.8984   55.1318 H   0  0  0  0  0  0  0  0  0  0  0  0
   33.9743   40.1205   56.1730 H   0  0  0  0  0  0  0  0  0  0  0  0
  1  2  2  0  0  0  0
  1 16  1  0  0  0  0
  1 17  1  0  0  0  0
  2  3  1  0  0  0  0
  2 18  1  0  0  0  0
  3  4  1  0  0  0  0
  3 19  1  0  0  0  0
  3 20  1  0  0  0  0
  4 15  2  0  0  0  0
  4  5  1  0  0  0  0
  5  6  1  0  0  0  0
  5  7  2  0  0  0  0
  6 21  1  0  0  0  0
  7  8  1  0  0  0  0
  7 22  1  0  0  0  0
  8  9  2  0  0  0  0
  8 23  1  0  0  0  0
  9 15  1  0  0  0  0
  9 10  1  0  0  0  0
 10 11  2  0  0  0  0
 10 24  1  0  0  0  0
 11 12  1  0  0  0  0
 11 25  1  0  0  0  0
 12 13  2  0  0  0  0
 12 14  1  0  0  0  0
 14 15  1  0  0  0  0
M  END
$$$$
