ZINC000000031845      none
 OpenBabel11202420163D

 40 42  0  0  0  0  0  0  0  0999 V2000
   29.2241   33.3864   64.6901 C   0  0  0  0  0  0  0  0  0  0  0  0
   29.0818   34.6441   65.5499 C   0  0  0  0  0  0  0  0  0  0  0  0
   29.1589   35.8207   64.7029 O   0  0  0  0  0  0  0  0  0  0  0  0
   30.3810   36.3471   64.4977 C   0  0  0  0  0  0  0  0  0  0  0  0
   31.2379   36.2452   65.3532 O   0  0  0  0  0  0  0  0  0  0  0  0
   30.6538   36.9872   63.3434 N   0  0  0  0  0  0  0  0  0  0  0  0
   31.9823   37.5692   63.0988 C   0  0  0  0  0  0  0  0  0  0  0  0
   32.4879   37.0739   61.7397 C   0  0  0  0  0  0  0  0  0  0  0  0
   31.4822   37.3667   60.7097 N   0  0  0  0  0  0  0  0  0  0  0  0
   31.9699   37.0808   59.4434 C   0  0  0  0  0  0  0  0  0  0  0  0
   32.0502   38.1084   58.4922 C   0  0  0  0  0  0  0  0  0  0  0  0
   32.5320   37.8434   57.2461 C   0  0  0  0  0  0  0  0  0  0  0  0
   32.9290   36.5232   56.9499 C   0  0  0  0  0  0  0  0  0  0  0  0
   33.4302   36.1802   55.6847 C   0  0  0  0  0  0  0  0  0  0  0  0
   33.8045   34.8947   55.4342 C   0  0  0  0  0  0  0  0  0  0  0  0
   33.6961   33.9148   56.4181 C   0  0  0  0  0  0  0  0  0  0  0  0
   33.2142   34.2132   57.6558 C   0  0  0  0  0  0  0  0  0  0  0  0
   32.8183   35.5288   57.9518 C   0  0  0  0  0  0  0  0  0  0  0  0
   32.3420   35.8494   59.1605 N   0  0  0  0  0  0  0  0  0  0  0  0
   30.2295   36.6442   60.9674 C   0  0  0  0  0  0  0  0  0  0  0  0
   29.6313   37.1219   62.2949 C   0  0  0  0  0  0  0  0  0  0  0  0
   28.4211   33.3572   63.9535 H   0  0  0  0  0  0  0  0  0  0  0  0
   30.1863   33.4033   64.1783 H   0  0  0  0  0  0  0  0  0  0  0  0
   29.1662   32.5030   65.3260 H   0  0  0  0  0  0  0  0  0  0  0  0
   29.8847   34.6732   66.2865 H   0  0  0  0  0  0  0  0  0  0  0  0
   28.1197   34.6271   66.0619 H   0  0  0  0  0  0  0  0  0  0  0  0
   32.6704   37.2533   63.8828 H   0  0  0  0  0  0  0  0  0  0  0  0
   31.9093   38.6567   63.0882 H   0  0  0  0  0  0  0  0  0  0  0  0
   33.4206   37.5807   61.4919 H   0  0  0  0  0  0  0  0  0  0  0  0
   32.6593   35.9985   61.7853 H   0  0  0  0  0  0  0  0  0  0  0  0
   31.7343   39.1088   58.7487 H   0  0  0  0  0  0  0  0  0  0  0  0
   32.6046   38.6236   56.5027 H   0  0  0  0  0  0  0  0  0  0  0  0
   33.5182   36.9313   54.9137 H   0  0  0  0  0  0  0  0  0  0  0  0
   34.1900   34.6319   54.4602 H   0  0  0  0  0  0  0  0  0  0  0  0
   33.9987   32.9022   56.1955 H   0  0  0  0  0  0  0  0  0  0  0  0
   33.1370   33.4418   58.4079 H   0  0  0  0  0  0  0  0  0  0  0  0
   30.4320   35.5747   61.0237 H   0  0  0  0  0  0  0  0  0  0  0  0
   29.5240   36.8389   60.1596 H   0  0  0  0  0  0  0  0  0  0  0  0
   28.7652   36.5102   62.5474 H   0  0  0  0  0  0  0  0  0  0  0  0
   29.3323   38.1664   62.2070 H   0  0  0  0  0  0  0  0  0  0  0  0
  1  2  1  0  0  0  0
  1 22  1  0  0  0  0
  1 23  1  0  0  0  0
  1 24  1  0  0  0  0
  2  3  1  0  0  0  0
  2 25  1  0  0  0  0
  2 26  1  0  0  0  0
  3  4  1  0  0  0  0
  4  5  2  0  0  0  0
  4  6  1  0  0  0  0
  6 21  1  0  0  0  0
  6  7  1  0  0  0  0
  7  8  1  0  0  0  0
  7 27  1  0  0  0  0
  7 28  1  0  0  0  0
  8  9  1  0  0  0  0
  8 29  1  0  0  0  0
  8 30  1  0  0  0  0
  9 10  1  0  0  0  0
  9 20  1  0  0  0  0
 10 19  2  0  0  0  0
 10 11  1  0  0  0  0
 11 12  2  0  0  0  0
 11 31  1  0  0  0  0
 12 13  1  0  0  0  0
 12 32  1  0  0  0  0
 13 18  2  0  0  0  0
 13 14  1  0  0  0  0
 14 15  2  0  0  0  0
 14 33  1  0  0  0  0
 15 16  1  0  0  0  0
 15 34  1  0  0  0  0
 16 17  2  0  0  0  0
 16 35  1  0  0  0  0
 17 18  1  0  0  0  0
 17 36  1  0  0  0  0
 18 19  1  0  0  0  0
 20 21  1  0  0  0  0
 20 37  1  0  0  0  0
 20 38  1  0  0  0  0
 21 39  1  0  0  0  0
 21 40  1  0  0  0  0
M  END
$$$$
