ZINC000000031904      none
 OpenBabel11202420163D

 49 51  0  0  0  0  0  0  0  0999 V2000
   30.3842   35.5236   64.3781 O   0  0  0  0  0  0  0  0  0  0  0  0
   30.5368   36.6367   63.9105 C   0  0  0  0  0  0  0  0  0  0  0  0
   30.8505   37.7639   64.7911 C   0  0  0  0  0  0  0  0  0  0  0  0
   32.1349   38.0701   65.0623 C   0  0  0  0  0  0  0  0  0  0  0  0
   32.4504   39.2033   65.9474 C   0  0  0  0  0  0  0  0  0  0  0  0
   31.5001   40.2042   66.1735 C   0  0  0  0  0  0  0  0  0  0  0  0
   31.8032   41.2627   67.0036 C   0  0  0  0  0  0  0  0  0  0  0  0
   33.0433   41.3364   67.6124 C   0  0  0  0  0  0  0  0  0  0  0  0
   33.3672   42.4969   68.5176 C   0  0  0  0  0  0  0  0  0  0  0  0
   33.9804   43.6309   67.6937 C   0  0  0  0  0  0  0  0  0  0  0  0
   35.1778   43.1693   67.0650 O   0  0  0  0  0  0  0  0  0  0  0  0
   33.9915   40.3524   67.3894 C   0  0  0  0  0  0  0  0  0  0  0  0
   33.7017   39.2849   66.5661 C   0  0  0  0  0  0  0  0  0  0  0  0
   30.4167   36.8322   62.5825 N   0  0  0  0  0  0  0  0  0  0  0  0
   30.5911   38.1705   61.9975 C   0  0  0  0  0  0  0  0  0  0  0  0
   31.6013   38.0643   60.8441 C   0  0  0  0  0  0  0  0  0  0  0  0
   31.1545   37.0291   59.9025 N   0  0  0  0  0  0  0  0  0  0  0  0
   31.9538   37.0156   58.7572 C   0  0  0  0  0  0  0  0  0  0  0  0
   32.0424   38.1475   57.9568 C   0  0  0  0  0  0  0  0  0  0  0  0
   32.8375   38.1325   56.8277 C   0  0  0  0  0  0  0  0  0  0  0  0
   33.5366   36.9888   56.4877 C   0  0  0  0  0  0  0  0  0  0  0  0
   33.4464   35.8585   57.2794 C   0  0  0  0  0  0  0  0  0  0  0  0
   32.6574   35.8685   58.4128 C   0  0  0  0  0  0  0  0  0  0  0  0
   31.1256   35.7058   60.5400 C   0  0  0  0  0  0  0  0  0  0  0  0
   30.1019   35.7141   61.6803 C   0  0  0  0  0  0  0  0  0  0  0  0
   30.0528   38.3499   65.2232 H   0  0  0  0  0  0  0  0  0  0  0  0
   32.9327   37.4843   64.6302 H   0  0  0  0  0  0  0  0  0  0  0  0
   30.5316   40.1483   65.6988 H   0  0  0  0  0  0  0  0  0  0  0  0
   31.0706   42.0365   67.1788 H   0  0  0  0  0  0  0  0  0  0  0  0
   34.0775   42.1763   69.2797 H   0  0  0  0  0  0  0  0  0  0  0  0
   32.4540   42.8488   68.9972 H   0  0  0  0  0  0  0  0  0  0  0  0
   33.2702   43.9516   66.9316 H   0  0  0  0  0  0  0  0  0  0  0  0
   34.2142   44.4703   68.3485 H   0  0  0  0  0  0  0  0  0  0  0  0
   35.8562   42.8675   67.6845 H   0  0  0  0  0  0  0  0  0  0  0  0
   34.9591   40.4191   67.8644 H   0  0  0  0  0  0  0  0  0  0  0  0
   34.4406   38.5156   66.3967 H   0  0  0  0  0  0  0  0  0  0  0  0
   29.6351   38.5320   61.6191 H   0  0  0  0  0  0  0  0  0  0  0  0
   30.9703   38.8551   62.7563 H   0  0  0  0  0  0  0  0  0  0  0  0
   32.5818   37.7983   61.2388 H   0  0  0  0  0  0  0  0  0  0  0  0
   31.6642   39.0225   60.3281 H   0  0  0  0  0  0  0  0  0  0  0  0
   31.4931   39.0396   58.2193 H   0  0  0  0  0  0  0  0  0  0  0  0
   32.9100   39.0134   56.2073 H   0  0  0  0  0  0  0  0  0  0  0  0
   34.1547   36.9784   55.6021 H   0  0  0  0  0  0  0  0  0  0  0  0
   33.9941   34.9671   57.0112 H   0  0  0  0  0  0  0  0  0  0  0  0
   32.5872   34.9853   59.0304 H   0  0  0  0  0  0  0  0  0  0  0  0
   32.1128   35.4727   60.9390 H   0  0  0  0  0  0  0  0  0  0  0  0
   30.8435   34.9534   59.8034 H   0  0  0  0  0  0  0  0  0  0  0  0
   30.1576   34.7741   62.2291 H   0  0  0  0  0  0  0  0  0  0  0  0
   29.0998   35.8441   61.2719 H   0  0  0  0  0  0  0  0  0  0  0  0
  1  2  2  0  0  0  0
  2  3  1  0  0  0  0
  2 14  1  0  0  0  0
  3  4  2  0  0  0  0
  3 26  1  0  0  0  0
  4  5  1  0  0  0  0
  4 27  1  0  0  0  0
  5 13  2  0  0  0  0
  5  6  1  0  0  0  0
  6  7  2  0  0  0  0
  6 28  1  0  0  0  0
  7  8  1  0  0  0  0
  7 29  1  0  0  0  0
  8  9  1  0  0  0  0
  8 12  2  0  0  0  0
  9 10  1  0  0  0  0
  9 30  1  0  0  0  0
  9 31  1  0  0  0  0
 10 11  1  0  0  0  0
 10 32  1  0  0  0  0
 10 33  1  0  0  0  0
 11 34  1  0  0  0  0
 12 13  1  0  0  0  0
 12 35  1  0  0  0  0
 13 36  1  0  0  0  0
 14 25  1  0  0  0  0
 14 15  1  0  0  0  0
 15 16  1  0  0  0  0
 15 37  1  0  0  0  0
 15 38  1  0  0  0  0
 16 17  1  0  0  0  0
 16 39  1  0  0  0  0
 16 40  1  0  0  0  0
 17 18  1  0  0  0  0
 17 24  1  0  0  0  0
 18 23  2  0  0  0  0
 18 19  1  0  0  0  0
 19 20  2  0  0  0  0
 19 41  1  0  0  0  0
 20 21  1  0  0  0  0
 20 42  1  0  0  0  0
 21 22  2  0  0  0  0
 21 43  1  0  0  0  0
 22 23  1  0  0  0  0
 22 44  1  0  0  0  0
 23 45  1  0  0  0  0
 24 25  1  0  0  0  0
 24 46  1  0  0  0  0
 24 47  1  0  0  0  0
 25 48  1  0  0  0  0
 25 49  1  0  0  0  0
M  END
$$$$
