ZINC000000012240      none
 OpenBabel11202420153D

 32 32  0  0  1  0  0  0  0  0999 V2000
   28.1799   34.6948   63.9304 C   0  0  0  0  0  0  0  0  0  0  0  0
   28.5731   35.3732   65.2173 C   0  0  0  0  0  0  0  0  0  0  0  0
   28.3422   34.8372   66.2805 O   0  0  0  0  0  0  0  0  0  0  0  0
   29.1815   36.5755   65.1868 N   0  0  0  0  0  0  0  0  0  0  0  0
   29.6180   37.3476   66.3644 C   0  0  0  0  0  0  0  0  0  0  0  0
   29.6653   38.8180   65.8792 C   0  0  0  0  0  0  0  0  0  0  0  0
   30.1856   38.6503   64.4272 C   0  0  0  0  0  0  0  0  0  0  0  0
   29.5253   37.3313   63.9735 C   0  0  1  0  0  0  0  0  0  0  0  0
   28.6222   37.5461   63.4022 H   0  0  0  0  0  0  0  0  0  0  0  0
   30.4687   36.5561   63.1514 C   0  0  0  0  0  0  0  0  0  0  0  0
   31.2211   35.9378   62.4956 C   0  0  0  0  0  0  0  0  0  0  0  0
   32.1645   35.1627   61.6736 C   0  0  0  0  0  0  0  0  0  0  0  0
   31.5461   33.8864   61.2905 N   0  0  0  0  0  0  0  0  0  0  0  0
   32.2192   33.3052   60.1213 C   0  0  0  0  0  0  0  0  0  0  0  0
   31.5416   32.9445   62.4177 C   0  0  0  0  0  0  0  0  0  0  0  0
   29.0012   34.0668   63.5849 H   0  0  0  0  0  0  0  0  0  0  0  0
   27.2974   34.0780   64.0997 H   0  0  0  0  0  0  0  0  0  0  0  0
   27.9569   35.4488   63.1755 H   0  0  0  0  0  0  0  0  0  0  0  0
   28.8995   37.2391   67.1768 H   0  0  0  0  0  0  0  0  0  0  0  0
   30.6074   37.0222   66.6859 H   0  0  0  0  0  0  0  0  0  0  0  0
   28.6710   39.2646   65.8888 H   0  0  0  0  0  0  0  0  0  0  0  0
   30.3609   39.4050   66.4788 H   0  0  0  0  0  0  0  0  0  0  0  0
   29.8577   39.4806   63.8018 H   0  0  0  0  0  0  0  0  0  0  0  0
   31.2722   38.5652   64.4143 H   0  0  0  0  0  0  0  0  0  0  0  0
   32.4148   35.7289   60.7764 H   0  0  0  0  0  0  0  0  0  0  0  0
   33.0717   34.9695   62.2461 H   0  0  0  0  0  0  0  0  0  0  0  0
   33.2686   33.1282   60.3570 H   0  0  0  0  0  0  0  0  0  0  0  0
   31.7415   32.3611   59.8592 H   0  0  0  0  0  0  0  0  0  0  0  0
   32.1470   33.9949   59.2804 H   0  0  0  0  0  0  0  0  0  0  0  0
   30.9766   33.3718   63.2461 H   0  0  0  0  0  0  0  0  0  0  0  0
   31.0783   32.0081   62.1068 H   0  0  0  0  0  0  0  0  0  0  0  0
   32.5663   32.7545   62.7366 H   0  0  0  0  0  0  0  0  0  0  0  0
  1  2  1  0  0  0  0
  1 16  1  0  0  0  0
  1 17  1  0  0  0  0
  1 18  1  0  0  0  0
  2  3  2  0  0  0  0
  2  4  1  0  0  0  0
  4  8  1  0  0  0  0
  4  5  1  0  0  0  0
  5  6  1  0  0  0  0
  5 19  1  0  0  0  0
  5 20  1  0  0  0  0
  6  7  1  0  0  0  0
  6 21  1  0  0  0  0
  6 22  1  0  0  0  0
  7  8  1  0  0  0  0
  7 23  1  0  0  0  0
  7 24  1  0  0  0  0
  8  9  1  6  0  0  0
  8 10  1  0  0  0  0
 10 11  3  0  0  0  0
 11 12  1  0  0  0  0
 12 13  1  0  0  0  0
 12 25  1  0  0  0  0
 12 26  1  0  0  0  0
 13 14  1  0  0  0  0
 13 15  1  0  0  0  0
 14 27  1  0  0  0  0
 14 28  1  0  0  0  0
 14 29  1  0  0  0  0
 15 30  1  0  0  0  0
 15 31  1  0  0  0  0
 15 32  1  0  0  0  0
M  END
$$$$
