ZINC000000048119      none
 OpenBabel11202420153D

 29 30  0  0  0  0  0  0  0  0999 V2000
   31.5635   32.7148   61.2819 C   0  0  0  0  0  0  0  0  0  0  0  0
   31.5260   34.1366   61.6331 N   0  0  0  0  0  0  0  0  0  0  0  0
   31.8841   35.0868   60.7003 C   0  0  0  0  0  0  0  0  0  0  0  0
   32.2630   34.7181   59.4835 N   0  0  0  0  0  0  0  0  0  0  0  0
   32.6195   35.6133   58.5632 C   0  0  0  0  0  0  0  0  0  0  0  0
   33.0168   35.1667   57.2894 C   0  0  0  0  0  0  0  0  0  0  0  0
   33.3838   36.0761   56.3430 C   0  0  0  0  0  0  0  0  0  0  0  0
   33.3598   37.4434   56.6518 C   0  0  0  0  0  0  0  0  0  0  0  0
   33.7638   38.4564   55.6119 C   0  0  0  0  0  0  0  0  0  0  0  0
   32.9745   37.8547   57.8804 C   0  0  0  0  0  0  0  0  0  0  0  0
   32.6055   36.9533   58.8343 N   0  0  0  0  0  0  0  0  0  0  0  0
   32.2257   37.3965   60.0519 C   0  0  0  0  0  0  0  0  0  0  0  0
   32.2118   38.5906   60.3001 O   0  0  0  0  0  0  0  0  0  0  0  0
   31.8456   36.4566   61.0324 C   0  0  0  0  0  0  0  0  0  0  0  0
   31.4258   36.8938   62.3690 C   0  0  0  0  0  0  0  0  0  0  0  0
   32.2410   37.5747   63.1147 N   0  0  0  0  0  0  0  0  0  0  0  0
   31.8359   37.9965   64.4043 O   0  0  0  0  0  0  0  0  0  0  0  0
   32.5789   32.4370   60.9994 H   0  0  0  0  0  0  0  0  0  0  0  0
   31.2495   32.1202   62.1398 H   0  0  0  0  0  0  0  0  0  0  0  0
   30.8899   32.5294   60.4452 H   0  0  0  0  0  0  0  0  0  0  0  0
   31.2495   34.4094   62.5219 H   0  0  0  0  0  0  0  0  0  0  0  0
   33.0309   34.1106   57.0633 H   0  0  0  0  0  0  0  0  0  0  0  0
   33.6907   35.7457   55.3617 H   0  0  0  0  0  0  0  0  0  0  0  0
   34.8348   38.6449   55.6852 H   0  0  0  0  0  0  0  0  0  0  0  0
   33.5297   38.0714   54.6194 H   0  0  0  0  0  0  0  0  0  0  0  0
   33.2191   39.3857   55.7790 H   0  0  0  0  0  0  0  0  0  0  0  0
   32.9585   38.9101   58.1090 H   0  0  0  0  0  0  0  0  0  0  0  0
   30.4386   36.6491   62.7319 H   0  0  0  0  0  0  0  0  0  0  0  0
   32.5100   38.4967   64.8842 H   0  0  0  0  0  0  0  0  0  0  0  0
  1  2  1  0  0  0  0
  1 18  1  0  0  0  0
  1 19  1  0  0  0  0
  1 20  1  0  0  0  0
  2  3  1  0  0  0  0
  2 21  1  0  0  0  0
  3 14  2  0  0  0  0
  3  4  1  0  0  0  0
  4  5  2  0  0  0  0
  5 11  1  0  0  0  0
  5  6  1  0  0  0  0
  6  7  2  0  0  0  0
  6 22  1  0  0  0  0
  7  8  1  0  0  0  0
  7 23  1  0  0  0  0
  8  9  1  0  0  0  0
  8 10  2  0  0  0  0
  9 24  1  0  0  0  0
  9 25  1  0  0  0  0
  9 26  1  0  0  0  0
 10 11  1  0  0  0  0
 10 27  1  0  0  0  0
 11 12  1  0  0  0  0
 12 13  2  0  0  0  0
 12 14  1  0  0  0  0
 14 15  1  0  0  0  0
 15 16  2  0  0  0  0
 15 28  1  0  0  0  0
 16 17  1  0  0  0  0
 17 29  1  0  0  0  0
M  END
$$$$
