ZINC000000030532      none
 OpenBabel11202420163D

 28 28  0  0  0  0  0  0  0  0999 V2000
   29.1185   38.0120   63.1458 C   0  0  0  0  0  0  0  0  0  0  0  0
   30.5679   37.8129   62.6980 C   0  0  0  0  0  0  0  0  0  0  0  0
   31.3201   36.9982   63.7523 C   0  0  0  0  0  0  0  0  0  0  0  0
   30.5903   37.0972   61.4200 N   0  0  0  0  0  0  0  0  0  0  0  0
   31.7672   36.8086   60.8299 C   0  0  0  0  0  0  0  0  0  0  0  0
   32.8076   37.1416   61.3567 O   0  0  0  0  0  0  0  0  0  0  0  0
   31.7903   36.0722   59.5152 C   0  0  0  0  0  0  0  0  0  0  0  0
   32.4692   36.9244   58.4741 C   0  0  0  0  0  0  0  0  0  0  0  0
   33.1646   36.3276   57.4390 C   0  0  0  0  0  0  0  0  0  0  0  0
   33.7834   37.1086   56.4812 C   0  0  0  0  0  0  0  0  0  0  0  0
   33.7156   38.4878   56.5642 C   0  0  0  0  0  0  0  0  0  0  0  0
   34.5686   39.5569   55.2585 Br  0  0  0  0  0  0  0  0  0  0  0  0
   33.0242   39.0844   57.6031 C   0  0  0  0  0  0  0  0  0  0  0  0
   32.4013   38.3026   58.5576 C   0  0  0  0  0  0  0  0  0  0  0  0
   28.6383   37.0406   63.2649 H   0  0  0  0  0  0  0  0  0  0  0  0
   29.1017   38.5445   64.0968 H   0  0  0  0  0  0  0  0  0  0  0  0
   28.5826   38.5923   62.3948 H   0  0  0  0  0  0  0  0  0  0  0  0
   31.0480   38.7843   62.5790 H   0  0  0  0  0  0  0  0  0  0  0  0
   32.3527   36.8564   63.4333 H   0  0  0  0  0  0  0  0  0  0  0  0
   31.3033   37.5308   64.7031 H   0  0  0  0  0  0  0  0  0  0  0  0
   30.8401   36.0269   63.8714 H   0  0  0  0  0  0  0  0  0  0  0  0
   29.7583   36.8308   60.9987 H   0  0  0  0  0  0  0  0  0  0  0  0
   32.3375   35.1368   59.6323 H   0  0  0  0  0  0  0  0  0  0  0  0
   30.7688   35.8587   59.2003 H   0  0  0  0  0  0  0  0  0  0  0  0
   33.2210   35.2509   57.3765 H   0  0  0  0  0  0  0  0  0  0  0  0
   34.3235   36.6424   55.6704 H   0  0  0  0  0  0  0  0  0  0  0  0
   32.9712   40.1612   57.6686 H   0  0  0  0  0  0  0  0  0  0  0  0
   31.8616   38.7683   59.3688 H   0  0  0  0  0  0  0  0  0  0  0  0
  1  2  1  0  0  0  0
  1 15  1  0  0  0  0
  1 16  1  0  0  0  0
  1 17  1  0  0  0  0
  2  3  1  0  0  0  0
  2  4  1  0  0  0  0
  2 18  1  0  0  0  0
  3 19  1  0  0  0  0
  3 20  1  0  0  0  0
  3 21  1  0  0  0  0
  4  5  1  0  0  0  0
  4 22  1  0  0  0  0
  5  6  2  0  0  0  0
  5  7  1  0  0  0  0
  7  8  1  0  0  0  0
  7 23  1  0  0  0  0
  7 24  1  0  0  0  0
  8 14  2  0  0  0  0
  8  9  1  0  0  0  0
  9 10  2  0  0  0  0
  9 25  1  0  0  0  0
 10 11  1  0  0  0  0
 10 26  1  0  0  0  0
 11 12  1  0  0  0  0
 11 13  2  0  0  0  0
 13 14  1  0  0  0  0
 13 27  1  0  0  0  0
 14 28  1  0  0  0  0
M  END
$$$$
