ZINC000000010360      none
 OpenBabel11202420153D

 29 30  0  0  0  0  0  0  0  0999 V2000
   30.1897   39.8196   65.2968 N   0  0  0  0  0  0  0  0  0  0  0  0
   31.1890   38.9613   65.0124 C   0  0  0  0  0  0  0  0  0  0  0  0
   31.9658   38.6222   65.8842 O   0  0  0  0  0  0  0  0  0  0  0  0
   31.3273   38.4789   63.7616 N   0  0  0  0  0  0  0  0  0  0  0  0
   32.3772   37.5769   63.4628 O   0  0  0  0  0  0  0  0  0  0  0  0
   30.3914   38.8873   62.7112 C   0  0  0  0  0  0  0  0  0  0  0  0
   30.7630   38.2112   61.4166 C   0  0  0  0  0  0  0  0  0  0  0  0
   30.3096   37.0136   60.9976 C   0  0  0  0  0  0  0  0  0  0  0  0
   30.9051   36.7620   59.7453 C   0  0  0  0  0  0  0  0  0  0  0  0
   31.6971   37.8312   59.4664 C   0  0  0  0  0  0  0  0  0  0  0  0
   32.5206   38.0071   58.2519 C   0  0  0  0  0  0  0  0  0  0  0  0
   32.7781   39.2875   57.7588 C   0  0  0  0  0  0  0  0  0  0  0  0
   33.5479   39.4446   56.6249 C   0  0  0  0  0  0  0  0  0  0  0  0
   34.0645   38.3369   55.9767 C   0  0  0  0  0  0  0  0  0  0  0  0
   33.8135   37.0650   56.4602 C   0  0  0  0  0  0  0  0  0  0  0  0
   33.0449   36.8937   57.5929 C   0  0  0  0  0  0  0  0  0  0  0  0
   31.6056   38.6996   60.4918 O   0  0  0  0  0  0  0  0  0  0  0  0
   29.5268   40.0333   64.6216 H   0  0  0  0  0  0  0  0  0  0  0  0
   30.1333   40.2238   66.1768 H   0  0  0  0  0  0  0  0  0  0  0  0
   32.9872   37.4258   64.1978 H   0  0  0  0  0  0  0  0  0  0  0  0
   30.4387   39.9687   62.5829 H   0  0  0  0  0  0  0  0  0  0  0  0
   29.3792   38.5990   62.9942 H   0  0  0  0  0  0  0  0  0  0  0  0
   29.6200   36.3687   61.5219 H   0  0  0  0  0  0  0  0  0  0  0  0
   30.7604   35.8885   59.1268 H   0  0  0  0  0  0  0  0  0  0  0  0
   32.3793   40.1532   58.2666 H   0  0  0  0  0  0  0  0  0  0  0  0
   33.7476   40.4345   56.2423 H   0  0  0  0  0  0  0  0  0  0  0  0
   34.6666   38.4653   55.0893 H   0  0  0  0  0  0  0  0  0  0  0  0
   34.2199   36.2045   55.9497 H   0  0  0  0  0  0  0  0  0  0  0  0
   32.8493   35.9004   57.9692 H   0  0  0  0  0  0  0  0  0  0  0  0
  1  2  1  0  0  0  0
  1 18  1  0  0  0  0
  1 19  1  0  0  0  0
  2  3  2  0  0  0  0
  2  4  1  0  0  0  0
  4  5  1  0  0  0  0
  4  6  1  0  0  0  0
  5 20  1  0  0  0  0
  6  7  1  0  0  0  0
  6 21  1  0  0  0  0
  6 22  1  0  0  0  0
  7 17  1  0  0  0  0
  7  8  2  0  0  0  0
  8  9  1  0  0  0  0
  8 23  1  0  0  0  0
  9 10  2  0  0  0  0
  9 24  1  0  0  0  0
 10 11  1  0  0  0  0
 10 17  1  0  0  0  0
 11 16  2  0  0  0  0
 11 12  1  0  0  0  0
 12 13  2  0  0  0  0
 12 25  1  0  0  0  0
 13 14  1  0  0  0  0
 13 26  1  0  0  0  0
 14 15  2  0  0  0  0
 14 27  1  0  0  0  0
 15 16  1  0  0  0  0
 15 28  1  0  0  0  0
 16 29  1  0  0  0  0
M  END
$$$$
