ZINC000000000869      none
 OpenBabel11202420153D

 30 30  0  0  0  0  0  0  0  0999 V2000
   31.0946   38.8566   57.5335 C   0  0  0  0  0  0  0  0  0  0  0  0
   32.4393   39.1229   58.1597 C   0  0  0  0  0  0  0  0  0  0  0  0
   32.9492   40.2133   58.0551 O   0  0  0  0  0  0  0  0  0  0  0  0
   33.0705   38.1485   58.8338 O   0  0  0  0  0  0  0  0  0  0  0  0
   32.8376   36.8701   58.4333 C   0  0  0  0  0  0  0  0  0  0  0  0
   33.1498   36.4799   57.1397 C   0  0  0  0  0  0  0  0  0  0  0  0
   32.9178   35.1794   56.7330 C   0  0  0  0  0  0  0  0  0  0  0  0
   32.3646   34.2650   57.6094 C   0  0  0  0  0  0  0  0  0  0  0  0
   32.0444   34.6477   58.9032 C   0  0  0  0  0  0  0  0  0  0  0  0
   31.5006   33.7472   59.7648 O   0  0  0  0  0  0  0  0  0  0  0  0
   32.1844   33.4920   60.8916 C   0  0  0  0  0  0  0  0  0  0  0  0
   31.5537   33.7621   62.2333 C   0  0  0  0  0  0  0  0  0  0  0  0
   33.3055   33.0457   60.8297 O   0  0  0  0  0  0  0  0  0  0  0  0
   32.2809   35.9535   59.3184 C   0  0  0  0  0  0  0  0  0  0  0  0
   31.9688   36.3331   60.5868 O   0  0  0  0  0  0  0  0  0  0  0  0
   30.7338   36.8174   60.7916 C   0  0  0  0  0  0  0  0  0  0  0  0
   30.4946   37.8381   61.8740 C   0  0  0  0  0  0  0  0  0  0  0  0
   29.8110   36.4335   60.1059 O   0  0  0  0  0  0  0  0  0  0  0  0
   31.2336   38.4927   56.5154 H   0  0  0  0  0  0  0  0  0  0  0  0
   30.5637   38.1057   58.1185 H   0  0  0  0  0  0  0  0  0  0  0  0
   30.5141   39.7789   57.5135 H   0  0  0  0  0  0  0  0  0  0  0  0
   33.5780   37.1923   56.4502 H   0  0  0  0  0  0  0  0  0  0  0  0
   33.1662   34.8778   55.7260 H   0  0  0  0  0  0  0  0  0  0  0  0
   32.1810   33.2510   57.2860 H   0  0  0  0  0  0  0  0  0  0  0  0
   30.5489   34.1591   62.0891 H   0  0  0  0  0  0  0  0  0  0  0  0
   31.4995   32.8342   62.8026 H   0  0  0  0  0  0  0  0  0  0  0  0
   32.1565   34.4882   62.7785 H   0  0  0  0  0  0  0  0  0  0  0  0
   31.4346   38.0581   62.3802 H   0  0  0  0  0  0  0  0  0  0  0  0
   30.0982   38.7516   61.4308 H   0  0  0  0  0  0  0  0  0  0  0  0
   29.7781   37.4430   62.5941 H   0  0  0  0  0  0  0  0  0  0  0  0
  1  2  1  0  0  0  0
  1 19  1  0  0  0  0
  1 20  1  0  0  0  0
  1 21  1  0  0  0  0
  2  3  2  0  0  0  0
  2  4  1  0  0  0  0
  4  5  1  0  0  0  0
  5 14  2  0  0  0  0
  5  6  1  0  0  0  0
  6  7  2  0  0  0  0
  6 22  1  0  0  0  0
  7  8  1  0  0  0  0
  7 23  1  0  0  0  0
  8  9  2  0  0  0  0
  8 24  1  0  0  0  0
  9 10  1  0  0  0  0
  9 14  1  0  0  0  0
 10 11  1  0  0  0  0
 11 12  1  0  0  0  0
 11 13  2  0  0  0  0
 12 25  1  0  0  0  0
 12 26  1  0  0  0  0
 12 27  1  0  0  0  0
 14 15  1  0  0  0  0
 15 16  1  0  0  0  0
 16 17  1  0  0  0  0
 16 18  2  0  0  0  0
 17 28  1  0  0  0  0
 17 29  1  0  0  0  0
 17 30  1  0  0  0  0
M  END
$$$$
