ZINC000000037574      none
 OpenBabel11202420153D

 34 35  0  0  1  0  0  0  0  0999 V2000
   33.0344   35.7041   63.8252 O   0  0  0  0  0  0  0  0  0  0  0  0
   32.3489   36.2615   62.9943 C   0  0  0  0  0  0  0  0  0  0  0  0
   32.0531   35.5814   61.6824 C   0  0  0  0  0  0  0  0  0  0  0  0
   31.8820   36.5675   60.6625 O   0  0  0  0  0  0  0  0  0  0  0  0
   32.2269   36.2123   59.3964 C   0  0  0  0  0  0  0  0  0  0  0  0
   32.1185   34.8899   58.9922 C   0  0  0  0  0  0  0  0  0  0  0  0
   32.4748   34.5297   57.7070 C   0  0  0  0  0  0  0  0  0  0  0  0
   32.9352   35.4877   56.8210 C   0  0  0  0  0  0  0  0  0  0  0  0
   33.3821   35.0319   55.2066 Cl  0  0  0  0  0  0  0  0  0  0  0  0
   33.0393   36.8084   57.2197 C   0  0  0  0  0  0  0  0  0  0  0  0
   32.6833   37.1733   58.5049 C   0  0  0  0  0  0  0  0  0  0  0  0
   32.8140   38.8304   59.0052 Cl  0  0  0  0  0  0  0  0  0  0  0  0
   31.8516   37.4890   63.2441 N   0  0  0  0  0  0  0  0  0  0  0  0
   32.1394   38.1502   64.5194 C   0  0  0  0  0  0  0  0  0  0  0  0
   31.0583   37.7847   65.5385 C   0  0  2  0  0  0  0  0  0  0  0  0
   31.0412   36.7051   65.6883 H   0  0  0  0  0  0  0  0  0  0  0  0
   29.6802   38.2655   65.0352 C   0  0  0  0  0  0  0  0  0  0  0  0
   29.0140   38.7782   66.3429 C   0  0  0  0  0  0  0  0  0  0  0  0
   30.2436   39.3395   67.1005 C   0  0  0  0  0  0  0  0  0  0  0  0
   31.3207   38.4437   66.7828 O   0  0  0  0  0  0  0  0  0  0  0  0
   31.1401   34.9932   61.7759 H   0  0  0  0  0  0  0  0  0  0  0  0
   32.8824   34.9253   61.4180 H   0  0  0  0  0  0  0  0  0  0  0  0
   31.7599   34.1414   59.6833 H   0  0  0  0  0  0  0  0  0  0  0  0
   32.3944   33.4993   57.3936 H   0  0  0  0  0  0  0  0  0  0  0  0
   33.3985   37.5547   56.5266 H   0  0  0  0  0  0  0  0  0  0  0  0
   31.3034   37.9347   62.5795 H   0  0  0  0  0  0  0  0  0  0  0  0
   33.1114   37.8222   64.8875 H   0  0  0  0  0  0  0  0  0  0  0  0
   32.1515   39.2304   64.3741 H   0  0  0  0  0  0  0  0  0  0  0  0
   29.7915   39.0750   64.3138 H   0  0  0  0  0  0  0  0  0  0  0  0
   29.1132   37.4385   64.6078 H   0  0  0  0  0  0  0  0  0  0  0  0
   28.5528   37.9590   66.8947 H   0  0  0  0  0  0  0  0  0  0  0  0
   28.2889   39.5646   66.1334 H   0  0  0  0  0  0  0  0  0  0  0  0
   30.0575   39.3416   68.1745 H   0  0  0  0  0  0  0  0  0  0  0  0
   30.4742   40.3467   66.7535 H   0  0  0  0  0  0  0  0  0  0  0  0
  1  2  2  0  0  0  0
  2  3  1  0  0  0  0
  2 13  1  0  0  0  0
  3  4  1  0  0  0  0
  3 21  1  0  0  0  0
  3 22  1  0  0  0  0
  4  5  1  0  0  0  0
  5 11  2  0  0  0  0
  5  6  1  0  0  0  0
  6  7  2  0  0  0  0
  6 23  1  0  0  0  0
  7  8  1  0  0  0  0
  7 24  1  0  0  0  0
  8  9  1  0  0  0  0
  8 10  2  0  0  0  0
 10 11  1  0  0  0  0
 10 25  1  0  0  0  0
 11 12  1  0  0  0  0
 13 14  1  0  0  0  0
 13 26  1  0  0  0  0
 14 15  1  0  0  0  0
 14 27  1  0  0  0  0
 14 28  1  0  0  0  0
 15 16  1  1  0  0  0
 15 20  1  0  0  0  0
 15 17  1  0  0  0  0
 17 18  1  0  0  0  0
 17 29  1  0  0  0  0
 17 30  1  0  0  0  0
 18 19  1  0  0  0  0
 18 31  1  0  0  0  0
 18 32  1  0  0  0  0
 19 20  1  0  0  0  0
 19 33  1  0  0  0  0
 19 34  1  0  0  0  0
M  END
$$$$
