ZINC000000027547      none
 OpenBabel11202420153D

 39 41  0  0  0  0  0  0  0  0999 V2000
   29.6306   40.0630   66.3755 C   0  0  0  0  0  0  0  0  0  0  0  0
   30.6882   39.1128   66.2319 O   0  0  0  0  0  0  0  0  0  0  0  0
   31.0344   38.7618   64.9661 C   0  0  0  0  0  0  0  0  0  0  0  0
   32.0579   37.8470   64.7563 C   0  0  0  0  0  0  0  0  0  0  0  0
   32.4075   37.4839   63.4730 C   0  0  0  0  0  0  0  0  0  0  0  0
   31.7360   38.0409   62.3849 C   0  0  0  0  0  0  0  0  0  0  0  0
   32.1095   37.6534   61.0043 C   0  0  0  0  0  0  0  0  0  0  0  0
   32.5664   38.6023   60.0869 C   0  0  0  0  0  0  0  0  0  0  0  0
   32.8997   38.1620   58.8032 C   0  0  0  0  0  0  0  0  0  0  0  0
   33.3726   39.0956   57.8259 C   0  0  0  0  0  0  0  0  0  0  0  0
   33.7477   39.8363   57.0504 N   0  0  0  0  0  0  0  0  0  0  0  0
   32.7772   36.8751   58.4898 N   0  0  0  0  0  0  0  0  0  0  0  0
   32.3581   35.9995   59.3285 N   0  0  0  0  0  0  0  0  0  0  0  0
   32.0212   36.3145   60.5748 C   0  0  0  0  0  0  0  0  0  0  0  0
   31.5501   35.2648   61.5054 C   0  0  0  0  0  0  0  0  0  0  0  0
   32.3776   34.1856   61.8196 C   0  0  0  0  0  0  0  0  0  0  0  0
   31.9379   33.2132   62.6916 C   0  0  0  0  0  0  0  0  0  0  0  0
   30.6680   33.2996   63.2479 C   0  0  0  0  0  0  0  0  0  0  0  0
   30.2356   32.3363   64.1022 O   0  0  0  0  0  0  0  0  0  0  0  0
   28.9195   32.4872   64.6377 C   0  0  0  0  0  0  0  0  0  0  0  0
   29.8396   34.3692   62.9332 C   0  0  0  0  0  0  0  0  0  0  0  0
   30.2750   35.3485   62.0668 C   0  0  0  0  0  0  0  0  0  0  0  0
   30.7124   38.9638   62.5990 C   0  0  0  0  0  0  0  0  0  0  0  0
   30.3676   39.3225   63.8847 C   0  0  0  0  0  0  0  0  0  0  0  0
   28.7218   39.6665   65.9225 H   0  0  0  0  0  0  0  0  0  0  0  0
   29.4553   40.2545   67.4341 H   0  0  0  0  0  0  0  0  0  0  0  0
   29.9079   40.9930   65.8791 H   0  0  0  0  0  0  0  0  0  0  0  0
   32.5774   37.4160   65.5993 H   0  0  0  0  0  0  0  0  0  0  0  0
   33.2008   36.7694   63.3105 H   0  0  0  0  0  0  0  0  0  0  0  0
   32.6586   39.6430   60.3607 H   0  0  0  0  0  0  0  0  0  0  0  0
   33.3631   34.1151   61.3835 H   0  0  0  0  0  0  0  0  0  0  0  0
   32.5794   32.3803   62.9387 H   0  0  0  0  0  0  0  0  0  0  0  0
   28.7000   31.6522   65.3031 H   0  0  0  0  0  0  0  0  0  0  0  0
   28.8593   33.4219   65.1955 H   0  0  0  0  0  0  0  0  0  0  0  0
   28.1955   32.5028   63.8232 H   0  0  0  0  0  0  0  0  0  0  0  0
   28.8528   34.4331   63.3676 H   0  0  0  0  0  0  0  0  0  0  0  0
   29.6304   36.1799   61.8227 H   0  0  0  0  0  0  0  0  0  0  0  0
   30.1908   39.3971   61.7585 H   0  0  0  0  0  0  0  0  0  0  0  0
   29.5748   40.0368   64.0512 H   0  0  0  0  0  0  0  0  0  0  0  0
  1  2  1  0  0  0  0
  1 25  1  0  0  0  0
  1 26  1  0  0  0  0
  1 27  1  0  0  0  0
  2  3  1  0  0  0  0
  3 24  2  0  0  0  0
  3  4  1  0  0  0  0
  4  5  2  0  0  0  0
  4 28  1  0  0  0  0
  5  6  1  0  0  0  0
  5 29  1  0  0  0  0
  6  7  1  0  0  0  0
  6 23  2  0  0  0  0
  7 14  2  0  0  0  0
  7  8  1  0  0  0  0
  8  9  2  0  0  0  0
  8 30  1  0  0  0  0
  9 10  1  0  0  0  0
  9 12  1  0  0  0  0
 10 11  3  0  0  0  0
 12 13  2  0  0  0  0
 13 14  1  0  0  0  0
 14 15  1  0  0  0  0
 15 22  2  0  0  0  0
 15 16  1  0  0  0  0
 16 17  2  0  0  0  0
 16 31  1  0  0  0  0
 17 18  1  0  0  0  0
 17 32  1  0  0  0  0
 18 19  1  0  0  0  0
 18 21  2  0  0  0  0
 19 20  1  0  0  0  0
 20 33  1  0  0  0  0
 20 34  1  0  0  0  0
 20 35  1  0  0  0  0
 21 22  1  0  0  0  0
 21 36  1  0  0  0  0
 22 37  1  0  0  0  0
 23 24  1  0  0  0  0
 23 38  1  0  0  0  0
 24 39  1  0  0  0  0
M  END
$$$$
