ZINC000000041614      none
 OpenBabel11202420153D

 30 32  0  0  0  0  0  0  0  0999 V2000
   32.0057   33.2660   60.0732 O   0  0  0  0  0  0  0  0  0  0  0  0
   32.1530   34.4725   59.9836 C   0  0  0  0  0  0  0  0  0  0  0  0
   32.1787   35.0380   58.7663 O   0  0  0  0  0  0  0  0  0  0  0  0
   32.3391   36.3696   58.6060 C   0  0  0  0  0  0  0  0  0  0  0  0
   32.3632   36.9336   57.3370 C   0  0  0  0  0  0  0  0  0  0  0  0
   32.5282   38.2949   57.1916 C   0  0  0  0  0  0  0  0  0  0  0  0
   32.6664   39.1132   58.3032 C   0  0  0  0  0  0  0  0  0  0  0  0
   32.6507   38.5735   59.5701 C   0  0  0  0  0  0  0  0  0  0  0  0
   32.4838   37.1963   59.7314 C   0  0  0  0  0  0  0  0  0  0  0  0
   32.4565   36.5868   61.0702 C   0  0  0  0  0  0  0  0  0  0  0  0
   32.5924   37.3434   62.1829 O   0  0  0  0  0  0  0  0  0  0  0  0
   31.4668   37.8496   62.7515 C   0  0  0  0  0  0  0  0  0  0  0  0
   30.2258   37.5900   62.1867 C   0  0  0  0  0  0  0  0  0  0  0  0
   29.0820   38.1008   62.7686 C   0  0  0  0  0  0  0  0  0  0  0  0
   29.1722   38.8803   63.9069 C   0  0  0  0  0  0  0  0  0  0  0  0
   30.4091   39.1457   64.4703 C   0  0  0  0  0  0  0  0  0  0  0  0
   30.4951   39.9069   65.5831 F   0  0  0  0  0  0  0  0  0  0  0  0
   31.5569   38.6312   63.8937 C   0  0  0  0  0  0  0  0  0  0  0  0
   32.2914   35.2315   61.1555 C   0  0  0  0  0  0  0  0  0  0  0  0
   32.2579   34.5686   62.4788 N   0  0  0  0  0  0  0  0  0  0  0  0
   32.1101   33.3619   62.5518 O   0  0  0  0  0  0  0  0  0  0  0  0
   32.3783   35.2301   63.4944 O   0  0  0  0  0  0  0  0  0  0  0  0
   32.2523   36.3064   56.4648 H   0  0  0  0  0  0  0  0  0  0  0  0
   32.5466   38.7286   56.2026 H   0  0  0  0  0  0  0  0  0  0  0  0
   32.7907   40.1783   58.1743 H   0  0  0  0  0  0  0  0  0  0  0  0
   32.7623   39.2119   60.4340 H   0  0  0  0  0  0  0  0  0  0  0  0
   30.1543   36.9853   61.2947 H   0  0  0  0  0  0  0  0  0  0  0  0
   28.1162   37.8951   62.3310 H   0  0  0  0  0  0  0  0  0  0  0  0
   28.2769   39.2823   64.3576 H   0  0  0  0  0  0  0  0  0  0  0  0
   32.5219   38.8376   64.3328 H   0  0  0  0  0  0  0  0  0  0  0  0
  1  2  2  0  0  0  0
  2 19  1  0  0  0  0
  2  3  1  0  0  0  0
  3  4  1  0  0  0  0
  4  9  2  0  0  0  0
  4  5  1  0  0  0  0
  5  6  2  0  0  0  0
  5 23  1  0  0  0  0
  6  7  1  0  0  0  0
  6 24  1  0  0  0  0
  7  8  2  0  0  0  0
  7 25  1  0  0  0  0
  8  9  1  0  0  0  0
  8 26  1  0  0  0  0
  9 10  1  0  0  0  0
 10 11  1  0  0  0  0
 10 19  2  0  0  0  0
 11 12  1  0  0  0  0
 12 18  2  0  0  0  0
 12 13  1  0  0  0  0
 13 14  2  0  0  0  0
 13 27  1  0  0  0  0
 14 15  1  0  0  0  0
 14 28  1  0  0  0  0
 15 16  2  0  0  0  0
 15 29  1  0  0  0  0
 16 17  1  0  0  0  0
 16 18  1  0  0  0  0
 18 30  1  0  0  0  0
 19 20  1  0  0  0  0
 20 21  2  0  0  0  0
 20 22  2  0  0  0  0
M  END
$$$$
