ZINC000000011114      none
 OpenBabel11202420153D

 27 28  0  0  0  0  0  0  0  0999 V2000
   33.0327   37.7144   56.6469 C   0  0  0  0  0  0  0  0  0  0  0  0
   32.7000   37.8559   58.1098 C   0  0  0  0  0  0  0  0  0  0  0  0
   32.3696   36.7735   58.8431 C   0  0  0  0  0  0  0  0  0  0  0  0
   32.0688   36.9215   60.1755 N   0  0  0  0  0  0  0  0  0  0  0  0
   31.7379   35.8408   60.9096 C   0  0  0  0  0  0  0  0  0  0  0  0
   31.7065   34.7418   60.3929 O   0  0  0  0  0  0  0  0  0  0  0  0
   31.4132   35.9928   62.3425 C   0  0  0  0  0  0  0  0  0  0  0  0
   32.4216   35.8994   63.3040 C   0  0  0  0  0  0  0  0  0  0  0  0
   32.1102   36.0362   64.6408 C   0  0  0  0  0  0  0  0  0  0  0  0
   30.8041   36.2770   65.0292 C   0  0  0  0  0  0  0  0  0  0  0  0
   29.7999   36.3706   64.0817 C   0  0  0  0  0  0  0  0  0  0  0  0
   30.0961   36.2301   62.7418 C   0  0  0  0  0  0  0  0  0  0  0  0
   32.0963   38.1367   60.7524 C   0  0  0  0  0  0  0  0  0  0  0  0
   31.8219   38.2465   61.9313 O   0  0  0  0  0  0  0  0  0  0  0  0
   32.4280   39.2317   60.0436 N   0  0  0  0  0  0  0  0  0  0  0  0
   32.4465   40.0996   60.4764 H   0  0  0  0  0  0  0  0  0  0  0  0
   32.7297   39.1287   58.7336 C   0  0  0  0  0  0  0  0  0  0  0  0
   33.0248   40.1203   58.0917 O   0  0  0  0  0  0  0  0  0  0  0  0
   32.1234   37.8207   56.0555 H   0  0  0  0  0  0  0  0  0  0  0  0
   33.7453   38.4878   56.3599 H   0  0  0  0  0  0  0  0  0  0  0  0
   33.4703   36.7324   56.4670 H   0  0  0  0  0  0  0  0  0  0  0  0
   32.3419   35.7956   58.3856 H   0  0  0  0  0  0  0  0  0  0  0  0
   33.4422   35.7160   63.0020 H   0  0  0  0  0  0  0  0  0  0  0  0
   32.8885   35.9593   65.3857 H   0  0  0  0  0  0  0  0  0  0  0  0
   30.5666   36.3877   66.0768 H   0  0  0  0  0  0  0  0  0  0  0  0
   28.7819   36.5538   64.3920 H   0  0  0  0  0  0  0  0  0  0  0  0
   29.3114   36.3032   62.0034 H   0  0  0  0  0  0  0  0  0  0  0  0
  1  2  1  0  0  0  0
  1 19  1  0  0  0  0
  1 20  1  0  0  0  0
  1 21  1  0  0  0  0
  2 17  1  0  0  0  0
  2  3  2  0  0  0  0
  3  4  1  0  0  0  0
  3 22  1  0  0  0  0
  4  5  1  0  0  0  0
  4 13  1  0  0  0  0
  5  6  2  0  0  0  0
  5  7  1  0  0  0  0
  7 12  2  0  0  0  0
  7  8  1  0  0  0  0
  8  9  2  0  0  0  0
  8 23  1  0  0  0  0
  9 10  1  0  0  0  0
  9 24  1  0  0  0  0
 10 11  2  0  0  0  0
 10 25  1  0  0  0  0
 11 12  1  0  0  0  0
 11 26  1  0  0  0  0
 12 27  1  0  0  0  0
 13 14  2  0  0  0  0
 13 15  1  0  0  0  0
 15 16  1  0  0  0  0
 15 17  1  0  0  0  0
 17 18  2  0  0  0  0
M  END
$$$$
