ZINC000000005970      none
 OpenBabel11202420153D

 19 20  0  0  1  0  0  0  0  0999 V2000
   28.9338   39.7951   66.0672 C   0  0  0  0  0  0  0  0  0  0  0  0
   29.8110   39.0353   65.2334 O   0  0  0  0  0  0  0  0  0  0  0  0
   29.5282   39.0045   63.9136 C   0  0  0  0  0  0  0  0  0  0  0  0
   28.5620   39.6074   63.4839 O   0  0  0  0  0  0  0  0  0  0  0  0
   30.3549   38.2714   63.0300 C   0  0  0  0  0  0  0  0  0  0  0  0
   31.6620   38.1187   63.2933 C   0  0  0  0  0  0  0  0  0  0  0  0
   32.3693   37.1769   61.9708 S   0  0  0  0  0  0  0  0  0  0  0  0
   30.8159   37.0346   61.0323 C   0  0  1  0  0  0  0  0  0  0  0  0
   30.8798   37.4043   60.0089 H   0  0  0  0  0  0  0  0  0  0  0  0
   30.0951   35.7008   61.2047 C   0  0  0  0  0  0  0  0  0  0  0  0
   29.1137   36.5582   61.9582 C   0  0  0  0  0  0  0  0  0  0  0  0
   28.0427   36.3039   62.4684 O   0  0  0  0  0  0  0  0  0  0  0  0
   29.8231   37.7048   61.8780 N   0  0  0  0  0  0  0  0  0  0  0  0
   29.2736   39.7361   67.1012 H   0  0  0  0  0  0  0  0  0  0  0  0
   28.9351   40.8357   65.7431 H   0  0  0  0  0  0  0  0  0  0  0  0
   27.9232   39.3928   65.9935 H   0  0  0  0  0  0  0  0  0  0  0  0
   32.1868   38.4976   64.1578 H   0  0  0  0  0  0  0  0  0  0  0  0
   29.7050   35.2769   60.2795 H   0  0  0  0  0  0  0  0  0  0  0  0
   30.6280   34.9776   61.8222 H   0  0  0  0  0  0  0  0  0  0  0  0
  1  2  1  0  0  0  0
  1 14  1  0  0  0  0
  1 15  1  0  0  0  0
  1 16  1  0  0  0  0
  2  3  1  0  0  0  0
  3  4  2  0  0  0  0
  3  5  1  0  0  0  0
  5 13  1  0  0  0  0
  5  6  2  0  0  0  0
  6  7  1  0  0  0  0
  6 17  1  0  0  0  0
  7  8  1  0  0  0  0
  8  9  1  6  0  0  0
  8 13  1  0  0  0  0
  8 10  1  0  0  0  0
 10 11  1  0  0  0  0
 10 18  1  0  0  0  0
 10 19  1  0  0  0  0
 11 12  2  0  0  0  0
 11 13  1  0  0  0  0
M  END
$$$$
