ZINC000000012984      none
 OpenBabel11202420153D

 22 23  0  0  0  0  0  0  0  0999 V2000
   32.2907   33.9205   54.0441 C   0  0  0  0  0  0  0  0  0  0  0  0
   32.5961   34.9106   55.0281 O   0  0  0  0  0  0  0  0  0  0  0  0
   33.7940   35.6433   54.7631 C   0  0  0  0  0  0  0  0  0  0  0  0
   33.7729   36.9369   55.5360 C   0  0  0  0  0  0  0  0  0  0  0  0
   33.3983   36.9055   56.7794 N   0  0  0  0  0  0  0  0  0  0  0  0
   33.3588   38.0257   57.5400 C   0  0  0  0  0  0  0  0  0  0  0  0
   32.9785   37.9898   58.8163 N   0  0  0  0  0  0  0  0  0  0  0  0
   32.9494   39.1044   59.5194 C   0  0  0  0  0  0  0  0  0  0  0  0
   33.3117   40.3181   58.9426 C   0  0  0  0  0  0  0  0  0  0  0  0
   33.6901   40.3726   57.6812 N   0  0  0  0  0  0  0  0  0  0  0  0
   33.7249   39.2604   56.9600 C   0  0  0  0  0  0  0  0  0  0  0  0
   34.1393   39.2620   55.5456 C   0  0  0  0  0  0  0  0  0  0  0  0
   34.4669   40.2908   54.9840 O   0  0  0  0  0  0  0  0  0  0  0  0
   34.1410   38.0751   54.8955 N   0  0  0  0  0  0  0  0  0  0  0  0
   34.4078   38.0376   53.9637 H   0  0  0  0  0  0  0  0  0  0  0  0
   32.1667   34.3996   53.0728 H   0  0  0  0  0  0  0  0  0  0  0  0
   33.1049   33.1976   53.9911 H   0  0  0  0  0  0  0  0  0  0  0  0
   31.3678   33.4089   54.3174 H   0  0  0  0  0  0  0  0  0  0  0  0
   33.8600   35.8583   53.6965 H   0  0  0  0  0  0  0  0  0  0  0  0
   34.6570   35.0516   55.0686 H   0  0  0  0  0  0  0  0  0  0  0  0
   32.6409   39.0756   60.5540 H   0  0  0  0  0  0  0  0  0  0  0  0
   33.2821   41.2221   59.5328 H   0  0  0  0  0  0  0  0  0  0  0  0
  1  2  1  0  0  0  0
  1 16  1  0  0  0  0
  1 17  1  0  0  0  0
  1 18  1  0  0  0  0
  2  3  1  0  0  0  0
  3  4  1  0  0  0  0
  3 19  1  0  0  0  0
  3 20  1  0  0  0  0
  4 14  1  0  0  0  0
  4  5  2  0  0  0  0
  5  6  1  0  0  0  0
  6 11  2  0  0  0  0
  6  7  1  0  0  0  0
  7  8  2  0  0  0  0
  8  9  1  0  0  0  0
  8 21  1  0  0  0  0
  9 10  2  0  0  0  0
  9 22  1  0  0  0  0
 10 11  1  0  0  0  0
 11 12  1  0  0  0  0
 12 13  2  0  0  0  0
 12 14  1  0  0  0  0
 14 15  1  0  0  0  0
M  END
$$$$
