ZINC000000004240      none
 OpenBabel11202420153D

 35 37  0  0  1  0  0  0  0  0999 V2000
   35.4596   37.6649   53.2896 C   0  0  0  0  0  0  0  0  0  0  0  0
   34.0649   37.7611   53.5854 O   0  0  0  0  0  0  0  0  0  0  0  0
   33.6689   37.3616   54.8170 C   0  0  0  0  0  0  0  0  0  0  0  0
   33.3124   36.0788   55.0233 C   0  0  0  0  0  0  0  0  0  0  0  0
   33.3582   35.0993   53.8790 C   0  0  0  0  0  0  0  0  0  0  0  0
   32.8801   35.6245   56.3519 C   0  0  0  0  0  0  0  0  0  0  0  0
   32.5613   34.4628   56.5230 O   0  0  0  0  0  0  0  0  0  0  0  0
   32.8322   36.5730   57.4759 C   0  0  0  0  0  0  0  0  0  0  0  0
   33.1975   37.8959   57.2744 C   0  0  0  0  0  0  0  0  0  0  0  0
   33.0539   38.5515   58.5106 C   0  0  0  0  0  0  0  0  0  0  0  0
   33.3355   40.0059   58.7865 C   0  0  0  0  0  0  0  0  0  0  0  0
   32.7743   40.8059   57.7437 O   0  0  0  0  0  0  0  0  0  0  0  0
   32.6140   37.6324   59.4108 C   0  0  0  0  0  0  0  0  0  0  0  0
   32.4794   36.4339   58.7939 N   0  0  0  0  0  0  0  0  0  0  0  0
   32.0076   35.4077   59.7401 C   0  0  0  0  0  0  0  0  0  0  0  0
   31.4359   36.1844   60.9446 C   0  0  0  0  0  0  0  0  0  0  0  0
   32.2262   37.5098   60.8715 C   0  0  2  0  0  0  0  0  0  0  0  0
   33.1146   37.4593   61.5010 H   0  0  0  0  0  0  0  0  0  0  0  0
   31.3990   38.6073   61.2629 O   0  0  0  0  0  0  0  0  0  0  0  0
   33.6301   38.3391   55.9336 C   0  0  0  0  0  0  0  0  0  0  0  0
   33.9513   39.4948   55.7459 O   0  0  0  0  0  0  0  0  0  0  0  0
   35.6542   38.1017   52.3100 H   0  0  0  0  0  0  0  0  0  0  0  0
   36.0297   38.2029   54.0469 H   0  0  0  0  0  0  0  0  0  0  0  0
   35.7589   36.6169   53.2859 H   0  0  0  0  0  0  0  0  0  0  0  0
   33.7855   35.5851   53.0017 H   0  0  0  0  0  0  0  0  0  0  0  0
   33.9742   34.2442   54.1570 H   0  0  0  0  0  0  0  0  0  0  0  0
   32.3477   34.7602   53.6504 H   0  0  0  0  0  0  0  0  0  0  0  0
   32.8900   40.2878   59.7405 H   0  0  0  0  0  0  0  0  0  0  0  0
   34.4129   40.1661   58.8272 H   0  0  0  0  0  0  0  0  0  0  0  0
   32.9176   41.7556   57.8560 H   0  0  0  0  0  0  0  0  0  0  0  0
   32.8385   34.7779   60.0579 H   0  0  0  0  0  0  0  0  0  0  0  0
   31.2285   34.8003   59.2793 H   0  0  0  0  0  0  0  0  0  0  0  0
   30.3671   36.3605   60.8230 H   0  0  0  0  0  0  0  0  0  0  0  0
   31.6394   35.6603   61.8784 H   0  0  0  0  0  0  0  0  0  0  0  0
   31.0744   38.5505   62.1720 H   0  0  0  0  0  0  0  0  0  0  0  0
  1  2  1  0  0  0  0
  1 22  1  0  0  0  0
  1 23  1  0  0  0  0
  1 24  1  0  0  0  0
  2  3  1  0  0  0  0
  3 20  1  0  0  0  0
  3  4  2  0  0  0  0
  4  5  1  0  0  0  0
  4  6  1  0  0  0  0
  5 25  1  0  0  0  0
  5 26  1  0  0  0  0
  5 27  1  0  0  0  0
  6  7  2  0  0  0  0
  6  8  1  0  0  0  0
  8 14  1  0  0  0  0
  8  9  2  0  0  0  0
  9 10  1  0  0  0  0
  9 20  1  0  0  0  0
 10 11  1  0  0  0  0
 10 13  2  0  0  0  0
 11 12  1  0  0  0  0
 11 28  1  0  0  0  0
 11 29  1  0  0  0  0
 12 30  1  0  0  0  0
 13 17  1  0  0  0  0
 13 14  1  0  0  0  0
 14 15  1  0  0  0  0
 15 16  1  0  0  0  0
 15 31  1  0  0  0  0
 15 32  1  0  0  0  0
 16 17  1  0  0  0  0
 16 33  1  0  0  0  0
 16 34  1  0  0  0  0
 17 18  1  1  0  0  0
 17 19  1  0  0  0  0
 19 35  1  0  0  0  0
 20 21  2  0  0  0  0
M  END
$$$$
