ZINC000000000340      none
 OpenBabel11202420153D

 40 42  0  0  0  0  0  0  0  0999 V2000
   34.4117   41.7571   53.1203 C   0  0  0  0  0  0  0  0  0  0  0  0
   35.3443   40.9507   53.8429 O   0  0  0  0  0  0  0  0  0  0  0  0
   34.8580   39.8329   54.4429 C   0  0  0  0  0  0  0  0  0  0  0  0
   34.3793   39.8994   55.7475 C   0  0  0  0  0  0  0  0  0  0  0  0
   33.8951   38.7656   56.3473 C   0  0  0  0  0  0  0  0  0  0  0  0
   33.8733   37.5461   55.6586 C   0  0  0  0  0  0  0  0  0  0  0  0
   34.3477   37.4798   54.3504 C   0  0  0  0  0  0  0  0  0  0  0  0
   34.8359   38.6255   53.7470 C   0  0  0  0  0  0  0  0  0  0  0  0
   35.3018   38.5719   52.4704 O   0  0  0  0  0  0  0  0  0  0  0  0
   35.2506   37.3036   51.8140 C   0  0  0  0  0  0  0  0  0  0  0  0
   33.3864   36.2478   56.1650 C   0  0  0  0  0  0  0  0  0  0  0  0
   33.4806   35.1152   55.2196 C   0  0  0  0  0  0  0  0  0  0  0  0
   32.8022   35.1617   53.9999 C   0  0  0  0  0  0  0  0  0  0  0  0
   32.8974   34.1038   53.1201 C   0  0  0  0  0  0  0  0  0  0  0  0
   33.6554   32.9933   53.4474 C   0  0  0  0  0  0  0  0  0  0  0  0
   34.3265   32.9378   54.6573 C   0  0  0  0  0  0  0  0  0  0  0  0
   35.2747   31.5402   55.0588 Cl  0  0  0  0  0  0  0  0  0  0  0  0
   34.2434   33.9922   55.5450 C   0  0  0  0  0  0  0  0  0  0  0  0
   32.8806   35.9654   57.3420 N   0  0  0  0  0  0  0  0  0  0  0  0
   32.6523   36.6684   58.3841 N   0  0  0  0  0  0  0  0  0  0  0  0
   32.8350   37.9176   58.6630 C   0  0  0  0  0  0  0  0  0  0  0  0
   32.4201   38.3581   60.0432 C   0  0  0  0  0  0  0  0  0  0  0  0
   33.4173   38.9921   57.7645 C   0  0  0  0  0  0  0  0  0  0  0  0
   33.9640   41.1668   52.3209 H   0  0  0  0  0  0  0  0  0  0  0  0
   33.6307   42.1040   53.7969 H   0  0  0  0  0  0  0  0  0  0  0  0
   34.9291   42.6156   52.6920 H   0  0  0  0  0  0  0  0  0  0  0  0
   34.3930   40.8360   56.2852 H   0  0  0  0  0  0  0  0  0  0  0  0
   34.3341   36.5435   53.8122 H   0  0  0  0  0  0  0  0  0  0  0  0
   35.6514   37.4003   50.8050 H   0  0  0  0  0  0  0  0  0  0  0  0
   34.2166   36.9622   51.7629 H   0  0  0  0  0  0  0  0  0  0  0  0
   35.8447   36.5808   52.3731 H   0  0  0  0  0  0  0  0  0  0  0  0
   32.2072   36.0261   53.7442 H   0  0  0  0  0  0  0  0  0  0  0  0
   32.3759   34.1403   52.1751 H   0  0  0  0  0  0  0  0  0  0  0  0
   33.7234   32.1660   52.7565 H   0  0  0  0  0  0  0  0  0  0  0  0
   34.7667   33.9481   56.4886 H   0  0  0  0  0  0  0  0  0  0  0  0
   31.3789   38.6801   60.0241 H   0  0  0  0  0  0  0  0  0  0  0  0
   32.5304   37.5261   60.7387 H   0  0  0  0  0  0  0  0  0  0  0  0
   33.0509   39.1867   60.3650 H   0  0  0  0  0  0  0  0  0  0  0  0
   34.2599   39.4211   58.3067 H   0  0  0  0  0  0  0  0  0  0  0  0
   32.6706   39.7846   57.7129 H   0  0  0  0  0  0  0  0  0  0  0  0
  1  2  1  0  0  0  0
  1 24  1  0  0  0  0
  1 25  1  0  0  0  0
  1 26  1  0  0  0  0
  2  3  1  0  0  0  0
  3  8  2  0  0  0  0
  3  4  1  0  0  0  0
  4  5  2  0  0  0  0
  4 27  1  0  0  0  0
  5 23  1  0  0  0  0
  5  6  1  0  0  0  0
  6  7  2  0  0  0  0
  6 11  1  0  0  0  0
  7  8  1  0  0  0  0
  7 28  1  0  0  0  0
  8  9  1  0  0  0  0
  9 10  1  0  0  0  0
 10 29  1  0  0  0  0
 10 30  1  0  0  0  0
 10 31  1  0  0  0  0
 11 12  1  0  0  0  0
 11 19  2  0  0  0  0
 12 18  2  0  0  0  0
 12 13  1  0  0  0  0
 13 14  2  0  0  0  0
 13 32  1  0  0  0  0
 14 15  1  0  0  0  0
 14 33  1  0  0  0  0
 15 16  2  0  0  0  0
 15 34  1  0  0  0  0
 16 17  1  0  0  0  0
 16 18  1  0  0  0  0
 18 35  1  0  0  0  0
 19 20  1  0  0  0  0
 20 21  2  0  0  0  0
 21 22  1  0  0  0  0
 21 23  1  0  0  0  0
 22 36  1  0  0  0  0
 22 37  1  0  0  0  0
 22 38  1  0  0  0  0
 23 39  1  0  0  0  0
 23 40  1  0  0  0  0
M  END
$$$$
