ZINC000000009851      none
 OpenBabel11202420153D

 37 39  0  0  0  0  0  0  0  0999 V2000
   33.5851   36.2370   52.2606 C   0  0  0  0  0  0  0  0  0  0  0  0
   34.5824   36.3423   53.2785 O   0  0  0  0  0  0  0  0  0  0  0  0
   34.1552   36.6471   54.5315 C   0  0  0  0  0  0  0  0  0  0  0  0
   34.0647   37.9660   54.9184 C   0  0  0  0  0  0  0  0  0  0  0  0
   33.6231   38.2773   56.2100 C   0  0  0  0  0  0  0  0  0  0  0  0
   33.5174   39.5460   56.6360 N   0  0  0  0  0  0  0  0  0  0  0  0
   33.1021   39.8066   57.8527 C   0  0  0  0  0  0  0  0  0  0  0  0
   32.7683   38.8617   58.7173 N   0  0  0  0  0  0  0  0  0  0  0  0
   32.8359   37.5755   58.3989 C   0  0  0  0  0  0  0  0  0  0  0  0
   32.4851   36.6006   59.3107 N   0  0  0  0  0  0  0  0  0  0  0  0
   32.0511   36.9635   60.5911 C   0  0  0  0  0  0  0  0  0  0  0  0
   32.2788   36.1166   61.6680 C   0  0  0  0  0  0  0  0  0  0  0  0
   31.8553   36.4780   62.9316 C   0  0  0  0  0  0  0  0  0  0  0  0
   31.1925   37.6811   63.1238 C   0  0  0  0  0  0  0  0  0  0  0  0
   30.7708   38.0341   64.3676 O   0  0  0  0  0  0  0  0  0  0  0  0
   30.9595   38.5252   62.0478 C   0  0  0  0  0  0  0  0  0  0  0  0
   31.3874   38.1679   60.7843 C   0  0  0  0  0  0  0  0  0  0  0  0
   33.2778   37.2298   57.0995 C   0  0  0  0  0  0  0  0  0  0  0  0
   33.3790   35.8975   56.6817 C   0  0  0  0  0  0  0  0  0  0  0  0
   33.8113   35.6162   55.4169 C   0  0  0  0  0  0  0  0  0  0  0  0
   33.9089   34.3216   55.0120 O   0  0  0  0  0  0  0  0  0  0  0  0
   33.5442   33.3163   55.9596 C   0  0  0  0  0  0  0  0  0  0  0  0
   34.0598   35.9901   51.3110 H   0  0  0  0  0  0  0  0  0  0  0  0
   32.8755   35.4536   52.5268 H   0  0  0  0  0  0  0  0  0  0  0  0
   33.0592   37.1873   52.1677 H   0  0  0  0  0  0  0  0  0  0  0  0
   34.3322   38.7543   54.2303 H   0  0  0  0  0  0  0  0  0  0  0  0
   33.0288   40.8385   58.1627 H   0  0  0  0  0  0  0  0  0  0  0  0
   32.5394   35.6640   59.0642 H   0  0  0  0  0  0  0  0  0  0  0  0
   32.7906   35.1775   61.5177 H   0  0  0  0  0  0  0  0  0  0  0  0
   32.0364   35.8216   63.7699 H   0  0  0  0  0  0  0  0  0  0  0  0
   30.9775   37.3829   65.0521 H   0  0  0  0  0  0  0  0  0  0  0  0
   30.4431   39.4617   62.1981 H   0  0  0  0  0  0  0  0  0  0  0  0
   31.2056   38.8249   59.9466 H   0  0  0  0  0  0  0  0  0  0  0  0
   33.1162   35.0960   57.3562 H   0  0  0  0  0  0  0  0  0  0  0  0
   32.5033   33.4538   56.2528 H   0  0  0  0  0  0  0  0  0  0  0  0
   33.6678   32.3310   55.5100 H   0  0  0  0  0  0  0  0  0  0  0  0
   34.1831   33.3970   56.8391 H   0  0  0  0  0  0  0  0  0  0  0  0
  1  2  1  0  0  0  0
  1 23  1  0  0  0  0
  1 24  1  0  0  0  0
  1 25  1  0  0  0  0
  2  3  1  0  0  0  0
  3 20  2  0  0  0  0
  3  4  1  0  0  0  0
  4  5  2  0  0  0  0
  4 26  1  0  0  0  0
  5 18  1  0  0  0  0
  5  6  1  0  0  0  0
  6  7  2  0  0  0  0
  7  8  1  0  0  0  0
  7 27  1  0  0  0  0
  8  9  2  0  0  0  0
  9 10  1  0  0  0  0
  9 18  1  0  0  0  0
 10 11  1  0  0  0  0
 10 28  1  0  0  0  0
 11 17  2  0  0  0  0
 11 12  1  0  0  0  0
 12 13  2  0  0  0  0
 12 29  1  0  0  0  0
 13 14  1  0  0  0  0
 13 30  1  0  0  0  0
 14 15  1  0  0  0  0
 14 16  2  0  0  0  0
 15 31  1  0  0  0  0
 16 17  1  0  0  0  0
 16 32  1  0  0  0  0
 17 33  1  0  0  0  0
 18 19  2  0  0  0  0
 19 20  1  0  0  0  0
 19 34  1  0  0  0  0
 20 21  1  0  0  0  0
 21 22  1  0  0  0  0
 22 35  1  0  0  0  0
 22 36  1  0  0  0  0
 22 37  1  0  0  0  0
M  END
$$$$
