ZINC000000037117      none
 OpenBabel11202420153D

 32 33  0  0  0  0  0  0  0  0999 V2000
   30.7134   34.7745   66.4902 C   0  0  0  0  0  0  0  0  0  0  0  0
   31.7357   35.6570   65.9225 N   0  0  0  0  0  0  0  0  0  0  0  0
   32.5999   36.3216   66.6017 N   0  0  0  0  0  0  0  0  0  0  0  0
   33.3819   37.0143   65.8133 C   0  0  0  0  0  0  0  0  0  0  0  0
   32.9845   36.7744   64.4964 C   0  0  0  0  0  0  0  0  0  0  0  0
   31.9192   35.8944   64.5895 C   0  0  0  0  0  0  0  0  0  0  0  0
   31.1419   35.3289   63.4772 C   0  0  0  0  0  0  0  0  0  0  0  0
   29.9723   35.0402   63.6380 O   0  0  0  0  0  0  0  0  0  0  0  0
   31.7266   35.1304   62.2785 O   0  0  0  0  0  0  0  0  0  0  0  0
   30.8756   35.2271   61.1060 C   0  0  0  0  0  0  0  0  0  0  0  0
   31.3849   36.3221   60.2047 C   0  0  0  0  0  0  0  0  0  0  0  0
   30.9805   37.4574   60.3414 O   0  0  0  0  0  0  0  0  0  0  0  0
   32.2898   36.0400   59.2465 N   0  0  0  0  0  0  0  0  0  0  0  0
   32.7629   37.0574   58.4088 C   0  0  0  0  0  0  0  0  0  0  0  0
   32.8447   38.3620   58.8776 C   0  0  0  0  0  0  0  0  0  0  0  0
   33.3121   39.3645   58.0505 C   0  0  0  0  0  0  0  0  0  0  0  0
   33.6992   39.0699   56.7541 C   0  0  0  0  0  0  0  0  0  0  0  0
   34.1561   40.0521   55.9468 F   0  0  0  0  0  0  0  0  0  0  0  0
   33.6181   37.7691   56.2838 C   0  0  0  0  0  0  0  0  0  0  0  0
   34.1036   37.4025   54.6578 Cl  0  0  0  0  0  0  0  0  0  0  0  0
   33.1563   36.7622   57.1106 C   0  0  0  0  0  0  0  0  0  0  0  0
   29.8071   35.3472   66.6863 H   0  0  0  0  0  0  0  0  0  0  0  0
   30.4918   33.9739   65.7842 H   0  0  0  0  0  0  0  0  0  0  0  0
   31.0809   34.3451   67.4223 H   0  0  0  0  0  0  0  0  0  0  0  0
   34.1912   37.6576   66.1260 H   0  0  0  0  0  0  0  0  0  0  0  0
   33.4164   37.1867   63.5966 H   0  0  0  0  0  0  0  0  0  0  0  0
   30.8883   34.2789   60.5688 H   0  0  0  0  0  0  0  0  0  0  0  0
   29.8558   35.4560   61.4152 H   0  0  0  0  0  0  0  0  0  0  0  0
   32.6132   35.1320   59.1371 H   0  0  0  0  0  0  0  0  0  0  0  0
   32.5434   38.5926   59.8888 H   0  0  0  0  0  0  0  0  0  0  0  0
   33.3753   40.3792   58.4151 H   0  0  0  0  0  0  0  0  0  0  0  0
   33.0976   35.7474   56.7457 H   0  0  0  0  0  0  0  0  0  0  0  0
  1  2  1  0  0  0  0
  1 22  1  0  0  0  0
  1 23  1  0  0  0  0
  1 24  1  0  0  0  0
  2  6  1  0  0  0  0
  2  3  1  0  0  0  0
  3  4  2  0  0  0  0
  4  5  1  0  0  0  0
  4 25  1  0  0  0  0
  5  6  2  0  0  0  0
  5 26  1  0  0  0  0
  6  7  1  0  0  0  0
  7  8  2  0  0  0  0
  7  9  1  0  0  0  0
  9 10  1  0  0  0  0
 10 11  1  0  0  0  0
 10 27  1  0  0  0  0
 10 28  1  0  0  0  0
 11 12  2  0  0  0  0
 11 13  1  0  0  0  0
 13 14  1  0  0  0  0
 13 29  1  0  0  0  0
 14 21  2  0  0  0  0
 14 15  1  0  0  0  0
 15 16  2  0  0  0  0
 15 30  1  0  0  0  0
 16 17  1  0  0  0  0
 16 31  1  0  0  0  0
 17 18  1  0  0  0  0
 17 19  2  0  0  0  0
 19 20  1  0  0  0  0
 19 21  1  0  0  0  0
 21 32  1  0  0  0  0
M  END
$$$$
