ZINC000000042319      none
 OpenBabel11202420153D

 36 38  0  0  0  0  0  0  0  0999 V2000
   30.2498   37.8135   66.0955 C   0  0  0  0  0  0  0  0  0  0  0  0
   30.7740   37.4298   64.7357 C   0  0  0  0  0  0  0  0  0  0  0  0
   31.7572   36.4637   64.6226 C   0  0  0  0  0  0  0  0  0  0  0  0
   32.2363   36.1064   63.3779 C   0  0  0  0  0  0  0  0  0  0  0  0
   31.7370   36.7261   62.2390 C   0  0  0  0  0  0  0  0  0  0  0  0
   32.2235   36.3711   60.9787 N   0  0  0  0  0  0  0  0  0  0  0  0
   31.6958   37.0255   59.7789 C   0  0  0  0  0  0  0  0  0  0  0  0
   32.3625   36.4822   58.5931 N   0  0  0  0  0  0  0  0  0  0  0  0
   32.8391   35.2280   58.4953 C   0  0  0  0  0  0  0  0  0  0  0  0
   32.7851   34.3794   59.3627 O   0  0  0  0  0  0  0  0  0  0  0  0
   33.4366   35.0543   57.1545 C   0  0  0  0  0  0  0  0  0  0  0  0
   34.0619   34.0036   56.5023 C   0  0  0  0  0  0  0  0  0  0  0  0
   34.5272   34.1775   55.2083 C   0  0  0  0  0  0  0  0  0  0  0  0
   34.3710   35.3907   54.5646 C   0  0  0  0  0  0  0  0  0  0  0  0
   33.7472   36.4504   55.2043 C   0  0  0  0  0  0  0  0  0  0  0  0
   33.2774   36.2914   56.4981 C   0  0  0  0  0  0  0  0  0  0  0  0
   32.5839   37.1734   57.4605 C   0  0  0  0  0  0  0  0  0  0  0  0
   32.2668   38.3288   57.2617 O   0  0  0  0  0  0  0  0  0  0  0  0
   30.7533   37.6995   62.3566 C   0  0  0  0  0  0  0  0  0  0  0  0
   30.2749   38.0485   63.6044 C   0  0  0  0  0  0  0  0  0  0  0  0
   29.2270   39.0860   63.7306 N   0  0  0  0  0  0  0  0  0  0  0  0
   28.8048   39.3944   64.8307 O   0  0  0  0  0  0  0  0  0  0  0  0
   28.7869   39.6314   62.7345 O   0  0  0  0  0  0  0  0  0  0  0  0
   29.3264   37.2699   66.2956 H   0  0  0  0  0  0  0  0  0  0  0  0
   30.0531   38.8853   66.1200 H   0  0  0  0  0  0  0  0  0  0  0  0
   30.9907   37.5627   66.8545 H   0  0  0  0  0  0  0  0  0  0  0  0
   32.1479   35.9854   65.5086 H   0  0  0  0  0  0  0  0  0  0  0  0
   33.0012   35.3491   63.2900 H   0  0  0  0  0  0  0  0  0  0  0  0
   32.9106   35.6912   60.8979 H   0  0  0  0  0  0  0  0  0  0  0  0
   30.6234   36.8441   59.7080 H   0  0  0  0  0  0  0  0  0  0  0  0
   31.8797   38.0983   59.8396 H   0  0  0  0  0  0  0  0  0  0  0  0
   34.1866   33.0535   57.0004 H   0  0  0  0  0  0  0  0  0  0  0  0
   35.0150   33.3594   54.6993 H   0  0  0  0  0  0  0  0  0  0  0  0
   34.7372   35.5137   53.5559 H   0  0  0  0  0  0  0  0  0  0  0  0
   33.6282   37.3962   54.6966 H   0  0  0  0  0  0  0  0  0  0  0  0
   30.3628   38.1828   61.4732 H   0  0  0  0  0  0  0  0  0  0  0  0
  1  2  1  0  0  0  0
  1 24  1  0  0  0  0
  1 25  1  0  0  0  0
  1 26  1  0  0  0  0
  2 20  2  0  0  0  0
  2  3  1  0  0  0  0
  3  4  2  0  0  0  0
  3 27  1  0  0  0  0
  4  5  1  0  0  0  0
  4 28  1  0  0  0  0
  5  6  1  0  0  0  0
  5 19  2  0  0  0  0
  6  7  1  0  0  0  0
  6 29  1  0  0  0  0
  7  8  1  0  0  0  0
  7 30  1  0  0  0  0
  7 31  1  0  0  0  0
  8 17  1  0  0  0  0
  8  9  1  0  0  0  0
  9 10  2  0  0  0  0
  9 11  1  0  0  0  0
 11 16  2  0  0  0  0
 11 12  1  0  0  0  0
 12 13  2  0  0  0  0
 12 32  1  0  0  0  0
 13 14  1  0  0  0  0
 13 33  1  0  0  0  0
 14 15  2  0  0  0  0
 14 34  1  0  0  0  0
 15 16  1  0  0  0  0
 15 35  1  0  0  0  0
 16 17  1  0  0  0  0
 17 18  2  0  0  0  0
 19 20  1  0  0  0  0
 19 36  1  0  0  0  0
 20 21  1  0  0  0  0
 21 22  2  0  0  0  0
 21 23  2  0  0  0  0
M  END
$$$$
