ZINC000000038395      none
 OpenBabel11202420153D

 37 38  0  0  0  0  0  0  0  0999 V2000
   34.0357   36.2507   55.1888 C   0  0  0  0  0  0  0  0  0  0  0  0
   33.5898   36.3316   56.5440 O   0  0  0  0  0  0  0  0  0  0  0  0
   33.3647   37.5742   57.0463 C   0  0  0  0  0  0  0  0  0  0  0  0
   33.5688   38.6926   56.2499 C   0  0  0  0  0  0  0  0  0  0  0  0
   33.3400   39.9565   56.7590 C   0  0  0  0  0  0  0  0  0  0  0  0
   32.9024   40.1111   58.0604 C   0  0  0  0  0  0  0  0  0  0  0  0
   32.7016   38.9958   58.8635 C   0  0  0  0  0  0  0  0  0  0  0  0
   32.2632   39.1525   60.1830 N   0  0  0  0  0  0  0  0  0  0  0  0
   31.5122   38.1948   60.7619 C   0  0  0  0  0  0  0  0  0  0  0  0
   31.2165   37.1968   60.1392 O   0  0  0  0  0  0  0  0  0  0  0  0
   31.0400   38.3636   62.1830 C   0  0  0  0  0  0  0  0  0  0  0  0
   32.0082   37.8089   63.0757 O   0  0  0  0  0  0  0  0  0  0  0  0
   31.7337   37.8795   64.4049 C   0  0  0  0  0  0  0  0  0  0  0  0
   32.2139   36.9036   65.2664 C   0  0  0  0  0  0  0  0  0  0  0  0
   31.9339   36.9779   66.6171 C   0  0  0  0  0  0  0  0  0  0  0  0
   31.1800   38.0266   67.1113 C   0  0  0  0  0  0  0  0  0  0  0  0
   30.6960   38.9973   66.2542 C   0  0  0  0  0  0  0  0  0  0  0  0
   29.8705   40.1358   66.7956 C   0  0  0  0  0  0  0  0  0  0  0  0
   30.9734   38.9275   64.9024 C   0  0  0  0  0  0  0  0  0  0  0  0
   32.9310   37.7254   58.3537 C   0  0  0  0  0  0  0  0  0  0  0  0
   34.1767   35.2052   54.9146 H   0  0  0  0  0  0  0  0  0  0  0  0
   33.2901   36.7009   54.5335 H   0  0  0  0  0  0  0  0  0  0  0  0
   34.9805   36.7842   55.0846 H   0  0  0  0  0  0  0  0  0  0  0  0
   33.9073   38.5747   55.2311 H   0  0  0  0  0  0  0  0  0  0  0  0
   33.4996   40.8250   56.1373 H   0  0  0  0  0  0  0  0  0  0  0  0
   32.7200   41.0999   58.4547 H   0  0  0  0  0  0  0  0  0  0  0  0
   32.4996   39.9507   60.6811 H   0  0  0  0  0  0  0  0  0  0  0  0
   30.0883   37.8483   62.3133 H   0  0  0  0  0  0  0  0  0  0  0  0
   30.9116   39.4241   62.3996 H   0  0  0  0  0  0  0  0  0  0  0  0
   32.8059   36.0865   64.8815 H   0  0  0  0  0  0  0  0  0  0  0  0
   32.3077   36.2189   67.2881 H   0  0  0  0  0  0  0  0  0  0  0  0
   30.9659   38.0853   68.1683 H   0  0  0  0  0  0  0  0  0  0  0  0
   28.8161   39.8601   66.7790 H   0  0  0  0  0  0  0  0  0  0  0  0
   30.1740   40.3496   67.8204 H   0  0  0  0  0  0  0  0  0  0  0  0
   30.0242   41.0214   66.1790 H   0  0  0  0  0  0  0  0  0  0  0  0
   30.5982   39.6881   64.2338 H   0  0  0  0  0  0  0  0  0  0  0  0
   32.7720   36.8563   58.9750 H   0  0  0  0  0  0  0  0  0  0  0  0
  1  2  1  0  0  0  0
  1 21  1  0  0  0  0
  1 22  1  0  0  0  0
  1 23  1  0  0  0  0
  2  3  1  0  0  0  0
  3 20  2  0  0  0  0
  3  4  1  0  0  0  0
  4  5  2  0  0  0  0
  4 24  1  0  0  0  0
  5  6  1  0  0  0  0
  5 25  1  0  0  0  0
  6  7  2  0  0  0  0
  6 26  1  0  0  0  0
  7  8  1  0  0  0  0
  7 20  1  0  0  0  0
  8  9  1  0  0  0  0
  8 27  1  0  0  0  0
  9 10  2  0  0  0  0
  9 11  1  0  0  0  0
 11 12  1  0  0  0  0
 11 28  1  0  0  0  0
 11 29  1  0  0  0  0
 12 13  1  0  0  0  0
 13 19  2  0  0  0  0
 13 14  1  0  0  0  0
 14 15  2  0  0  0  0
 14 30  1  0  0  0  0
 15 16  1  0  0  0  0
 15 31  1  0  0  0  0
 16 17  2  0  0  0  0
 16 32  1  0  0  0  0
 17 18  1  0  0  0  0
 17 19  1  0  0  0  0
 18 33  1  0  0  0  0
 18 34  1  0  0  0  0
 18 35  1  0  0  0  0
 19 36  1  0  0  0  0
 20 37  1  0  0  0  0
M  END
$$$$
