ZINC000000017603      none
 OpenBabel11202420153D

 40 42  0  0  0  0  0  0  0  0999 V2000
   34.4328   33.1391   55.8032 C   0  0  0  0  0  0  0  0  0  0  0  0
   33.7840   34.0645   56.8345 C   0  0  0  0  0  0  0  0  0  0  0  0
   33.5234   35.3358   56.2364 O   0  0  0  0  0  0  0  0  0  0  0  0
   32.9459   36.2780   57.0208 C   0  0  0  0  0  0  0  0  0  0  0  0
   32.6547   37.5421   56.5094 C   0  0  0  0  0  0  0  0  0  0  0  0
   32.0711   38.4739   57.3467 C   0  0  0  0  0  0  0  0  0  0  0  0
   31.7974   38.1381   58.5985 N   0  0  0  0  0  0  0  0  0  0  0  0
   32.0806   36.9274   59.0552 C   0  0  0  0  0  0  0  0  0  0  0  0
   31.7791   36.6141   60.3691 N   0  0  0  0  0  0  0  0  0  0  0  0
   30.3286   36.6485   60.5990 C   0  0  0  0  0  0  0  0  0  0  0  0
   30.0252   36.1230   62.0062 C   0  0  0  0  0  0  0  0  0  0  0  0
   30.8266   36.8881   62.9735 N   0  0  0  0  0  0  0  0  0  0  0  0
   30.2513   37.4590   64.0503 C   0  0  0  0  0  0  0  0  0  0  0  0
   29.0534   37.3450   64.2323 O   0  0  0  0  0  0  0  0  0  0  0  0
   31.0684   38.2172   65.0022 C   0  0  0  0  0  0  0  0  0  0  0  0
   32.1213   37.7185   65.7163 C   0  0  0  0  0  0  0  0  0  0  0  0
   32.7114   38.6501   66.5371 C   0  0  0  0  0  0  0  0  0  0  0  0
   32.1627   39.8699   66.4980 C   0  0  0  0  0  0  0  0  0  0  0  0
   30.8557   39.9161   65.4023 S   0  0  0  0  0  0  0  0  0  0  0  0
   32.2724   37.0139   62.7343 C   0  0  0  0  0  0  0  0  0  0  0  0
   32.4873   37.5044   61.2984 C   0  0  0  0  0  0  0  0  0  0  0  0
   32.6449   36.0087   58.2851 N   0  0  0  0  0  0  0  0  0  0  0  0
   35.3696   33.5779   55.4599 H   0  0  0  0  0  0  0  0  0  0  0  0
   34.6316   32.1692   56.2594 H   0  0  0  0  0  0  0  0  0  0  0  0
   33.7594   33.0107   54.9557 H   0  0  0  0  0  0  0  0  0  0  0  0
   34.4572   34.1926   57.6820 H   0  0  0  0  0  0  0  0  0  0  0  0
   32.8471   33.6257   57.1778 H   0  0  0  0  0  0  0  0  0  0  0  0
   32.8840   37.7889   55.4832 H   0  0  0  0  0  0  0  0  0  0  0  0
   31.8367   39.4635   56.9832 H   0  0  0  0  0  0  0  0  0  0  0  0
   29.9704   37.6740   60.5086 H   0  0  0  0  0  0  0  0  0  0  0  0
   29.8283   36.0217   59.8609 H   0  0  0  0  0  0  0  0  0  0  0  0
   30.2878   35.0669   62.0671 H   0  0  0  0  0  0  0  0  0  0  0  0
   28.9653   36.2529   62.2249 H   0  0  0  0  0  0  0  0  0  0  0  0
   32.4566   36.6945   65.6431 H   0  0  0  0  0  0  0  0  0  0  0  0
   33.5566   38.4147   67.1671 H   0  0  0  0  0  0  0  0  0  0  0  0
   32.5042   40.7136   67.0794 H   0  0  0  0  0  0  0  0  0  0  0  0
   32.7510   36.0434   62.8652 H   0  0  0  0  0  0  0  0  0  0  0  0
   32.7012   37.7310   63.4342 H   0  0  0  0  0  0  0  0  0  0  0  0
   33.5526   37.4981   61.0676 H   0  0  0  0  0  0  0  0  0  0  0  0
   32.0993   38.5180   61.1979 H   0  0  0  0  0  0  0  0  0  0  0  0
  1  2  1  0  0  0  0
  1 23  1  0  0  0  0
  1 24  1  0  0  0  0
  1 25  1  0  0  0  0
  2  3  1  0  0  0  0
  2 26  1  0  0  0  0
  2 27  1  0  0  0  0
  3  4  1  0  0  0  0
  4 22  2  0  0  0  0
  4  5  1  0  0  0  0
  5  6  2  0  0  0  0
  5 28  1  0  0  0  0
  6  7  1  0  0  0  0
  6 29  1  0  0  0  0
  7  8  2  0  0  0  0
  8  9  1  0  0  0  0
  8 22  1  0  0  0  0
  9 21  1  0  0  0  0
  9 10  1  0  0  0  0
 10 11  1  0  0  0  0
 10 30  1  0  0  0  0
 10 31  1  0  0  0  0
 11 12  1  0  0  0  0
 11 32  1  0  0  0  0
 11 33  1  0  0  0  0
 12 13  1  0  0  0  0
 12 20  1  0  0  0  0
 13 14  2  0  0  0  0
 13 15  1  0  0  0  0
 15 19  1  0  0  0  0
 15 16  2  0  0  0  0
 16 17  1  0  0  0  0
 16 34  1  0  0  0  0
 17 18  2  0  0  0  0
 17 35  1  0  0  0  0
 18 19  1  0  0  0  0
 18 36  1  0  0  0  0
 20 21  1  0  0  0  0
 20 37  1  0  0  0  0
 20 38  1  0  0  0  0
 21 39  1  0  0  0  0
 21 40  1  0  0  0  0
M  END
$$$$
