ZINC000000049564      none
 OpenBabel11202420153D

 40 42  0  0  0  0  0  0  0  0999 V2000
   29.0305   40.6605   66.4727 C   0  0  0  0  0  0  0  0  0  0  0  0
   28.6964   40.0394   65.2300 O   0  0  0  0  0  0  0  0  0  0  0  0
   29.5955   39.1611   64.7189 C   0  0  0  0  0  0  0  0  0  0  0  0
   29.3310   38.5216   63.5126 C   0  0  0  0  0  0  0  0  0  0  0  0
   30.2361   37.6332   62.9924 C   0  0  0  0  0  0  0  0  0  0  0  0
   31.4285   37.3693   63.6777 C   0  0  0  0  0  0  0  0  0  0  0  0
   32.4013   36.4180   63.1251 C   0  0  0  0  0  0  0  0  0  0  0  0
   33.4335   36.1914   63.7203 O   0  0  0  0  0  0  0  0  0  0  0  0
   32.1170   35.7231   61.8183 C   0  0  0  0  0  0  0  0  0  0  0  0
   31.9614   36.6975   60.7847 O   0  0  0  0  0  0  0  0  0  0  0  0
   32.3182   36.3261   59.5289 C   0  0  0  0  0  0  0  0  0  0  0  0
   32.2062   34.9909   59.1450 C   0  0  0  0  0  0  0  0  0  0  0  0
   32.5613   34.6016   57.8862 C   0  0  0  0  0  0  0  0  0  0  0  0
   33.0410   35.5490   56.9745 C   0  0  0  0  0  0  0  0  0  0  0  0
   33.4289   35.1600   55.6170 C   0  0  0  0  0  0  0  0  0  0  0  0
   33.3227   33.7273   55.1623 C   0  0  0  0  0  0  0  0  0  0  0  0
   33.8867   36.1260   54.7788 C   0  0  0  0  0  0  0  0  0  0  0  0
   33.9764   37.4597   55.2280 C   0  0  0  0  0  0  0  0  0  0  0  0
   34.3881   38.3160   54.4661 O   0  0  0  0  0  0  0  0  0  0  0  0
   33.6139   37.8105   56.4718 O   0  0  0  0  0  0  0  0  0  0  0  0
   33.1563   36.8986   57.3562 C   0  0  0  0  0  0  0  0  0  0  0  0
   32.7914   37.2768   58.6396 C   0  0  0  0  0  0  0  0  0  0  0  0
   31.6875   38.0119   64.8946 C   0  0  0  0  0  0  0  0  0  0  0  0
   30.7784   38.9033   65.4036 C   0  0  0  0  0  0  0  0  0  0  0  0
   28.2286   41.3374   66.7676 H   0  0  0  0  0  0  0  0  0  0  0  0
   29.1601   39.8954   67.2381 H   0  0  0  0  0  0  0  0  0  0  0  0
   29.9575   41.2227   66.3602 H   0  0  0  0  0  0  0  0  0  0  0  0
   28.4110   38.7253   62.9849 H   0  0  0  0  0  0  0  0  0  0  0  0
   30.0293   37.1358   62.0559 H   0  0  0  0  0  0  0  0  0  0  0  0
   31.2006   35.1400   61.9089 H   0  0  0  0  0  0  0  0  0  0  0  0
   32.9464   35.0605   61.5712 H   0  0  0  0  0  0  0  0  0  0  0  0
   31.8364   34.2596   59.8485 H   0  0  0  0  0  0  0  0  0  0  0  0
   32.4727   33.5655   57.5945 H   0  0  0  0  0  0  0  0  0  0  0  0
   32.3375   33.5558   54.7285 H   0  0  0  0  0  0  0  0  0  0  0  0
   34.0893   33.5258   54.4139 H   0  0  0  0  0  0  0  0  0  0  0  0
   33.4646   33.0639   56.0153 H   0  0  0  0  0  0  0  0  0  0  0  0
   34.1815   35.8732   53.7710 H   0  0  0  0  0  0  0  0  0  0  0  0
   32.8760   38.3093   58.9447 H   0  0  0  0  0  0  0  0  0  0  0  0
   32.6036   37.8089   65.4295 H   0  0  0  0  0  0  0  0  0  0  0  0
   30.9791   39.4026   66.3400 H   0  0  0  0  0  0  0  0  0  0  0  0
  1  2  1  0  0  0  0
  1 25  1  0  0  0  0
  1 26  1  0  0  0  0
  1 27  1  0  0  0  0
  2  3  1  0  0  0  0
  3 24  2  0  0  0  0
  3  4  1  0  0  0  0
  4  5  2  0  0  0  0
  4 28  1  0  0  0  0
  5  6  1  0  0  0  0
  5 29  1  0  0  0  0
  6  7  1  0  0  0  0
  6 23  2  0  0  0  0
  7  8  2  0  0  0  0
  7  9  1  0  0  0  0
  9 10  1  0  0  0  0
  9 30  1  0  0  0  0
  9 31  1  0  0  0  0
 10 11  1  0  0  0  0
 11 22  2  0  0  0  0
 11 12  1  0  0  0  0
 12 13  2  0  0  0  0
 12 32  1  0  0  0  0
 13 14  1  0  0  0  0
 13 33  1  0  0  0  0
 14 21  2  0  0  0  0
 14 15  1  0  0  0  0
 15 16  1  0  0  0  0
 15 17  2  0  0  0  0
 16 34  1  0  0  0  0
 16 35  1  0  0  0  0
 16 36  1  0  0  0  0
 17 18  1  0  0  0  0
 17 37  1  0  0  0  0
 18 19  2  0  0  0  0
 18 20  1  0  0  0  0
 20 21  1  0  0  0  0
 21 22  1  0  0  0  0
 22 38  1  0  0  0  0
 23 24  1  0  0  0  0
 23 39  1  0  0  0  0
 24 40  1  0  0  0  0
M  END
$$$$
