ZINC000000049877      none
 OpenBabel11202420153D

 31 33  0  0  0  0  0  0  0  0999 V2000
   32.6862   35.2630   62.6961 O   0  0  0  0  0  0  0  0  0  0  0  0
   31.6848   35.8408   62.3298 C   0  0  0  0  0  0  0  0  0  0  0  0
   30.8826   35.2995   61.1747 C   0  0  0  0  0  0  0  0  0  0  0  0
   31.9828   34.4284   60.0316 S   0  0  0  0  0  0  0  0  0  0  0  0
   32.4302   35.7575   58.9648 C   0  0  0  0  0  0  0  0  0  0  0  0
   32.5078   37.0161   59.3216 N   0  0  0  0  0  0  0  0  0  0  0  0
   32.8786   37.7709   58.2543 C   0  0  0  0  0  0  0  0  0  0  0  0
   33.1105   39.1376   58.0796 C   0  0  0  0  0  0  0  0  0  0  0  0
   33.4820   39.6157   56.8430 C   0  0  0  0  0  0  0  0  0  0  0  0
   33.6377   38.7492   55.7711 C   0  0  0  0  0  0  0  0  0  0  0  0
   33.4175   37.3963   55.9285 C   0  0  0  0  0  0  0  0  0  0  0  0
   33.0379   36.8980   57.1654 C   0  0  0  0  0  0  0  0  0  0  0  0
   32.7480   35.6299   57.6421 N   0  0  0  0  0  0  0  0  0  0  0  0
   32.7671   34.8051   57.1319 H   0  0  0  0  0  0  0  0  0  0  0  0
   31.2897   36.9671   62.9556 N   0  0  0  0  0  0  0  0  0  0  0  0
   32.0294   37.4663   64.0205 C   0  0  0  0  0  0  0  0  0  0  0  0
   31.6267   38.5739   64.6239 N   0  0  0  0  0  0  0  0  0  0  0  0
   32.3051   39.0733   65.6438 C   0  0  0  0  0  0  0  0  0  0  0  0
   33.4551   38.4283   66.0715 C   0  0  0  0  0  0  0  0  0  0  0  0
   33.8505   37.2740   65.4136 C   0  0  0  0  0  0  0  0  0  0  0  0
   33.1231   36.8258   64.4038 N   0  0  0  0  0  0  0  0  0  0  0  0
   30.3951   36.1232   60.6532 H   0  0  0  0  0  0  0  0  0  0  0  0
   30.1271   34.6087   61.5492 H   0  0  0  0  0  0  0  0  0  0  0  0
   32.9953   39.8173   58.9110 H   0  0  0  0  0  0  0  0  0  0  0  0
   33.6573   40.6727   56.7075 H   0  0  0  0  0  0  0  0  0  0  0  0
   33.9337   39.1360   54.8072 H   0  0  0  0  0  0  0  0  0  0  0  0
   33.5407   36.7268   55.0900 H   0  0  0  0  0  0  0  0  0  0  0  0
   30.4888   37.4293   62.6626 H   0  0  0  0  0  0  0  0  0  0  0  0
   31.9692   39.9746   66.1348 H   0  0  0  0  0  0  0  0  0  0  0  0
   34.0301   38.8162   66.8993 H   0  0  0  0  0  0  0  0  0  0  0  0
   34.7413   36.7471   65.7219 H   0  0  0  0  0  0  0  0  0  0  0  0
  1  2  2  0  0  0  0
  2  3  1  0  0  0  0
  2 15  1  0  0  0  0
  3  4  1  0  0  0  0
  3 22  1  0  0  0  0
  3 23  1  0  0  0  0
  4  5  1  0  0  0  0
  5 13  1  0  0  0  0
  5  6  2  0  0  0  0
  6  7  1  0  0  0  0
  7 12  2  0  0  0  0
  7  8  1  0  0  0  0
  8  9  2  0  0  0  0
  8 24  1  0  0  0  0
  9 10  1  0  0  0  0
  9 25  1  0  0  0  0
 10 11  2  0  0  0  0
 10 26  1  0  0  0  0
 11 12  1  0  0  0  0
 11 27  1  0  0  0  0
 12 13  1  0  0  0  0
 13 14  1  0  0  0  0
 15 16  1  0  0  0  0
 15 28  1  0  0  0  0
 16 21  2  0  0  0  0
 16 17  1  0  0  0  0
 17 18  2  0  0  0  0
 18 19  1  0  0  0  0
 18 29  1  0  0  0  0
 19 20  2  0  0  0  0
 19 30  1  0  0  0  0
 20 21  1  0  0  0  0
 20 31  1  0  0  0  0
M  END
$$$$
