ZINC000000000974      none
 OpenBabel11202420153D

 39 41  0  0  1  0  0  0  0  0999 V2000
   34.2230   36.5837   55.4428 N   0  0  0  0  0  0  0  0  0  0  0  0
   33.5153   36.2738   56.6065 C   0  0  0  0  0  0  0  0  0  0  0  0
   32.9526   37.2886   57.3699 C   0  0  0  0  0  0  0  0  0  0  0  0
   32.2536   36.9789   58.5200 C   0  0  0  0  0  0  0  0  0  0  0  0
   32.1137   35.6603   58.9121 C   0  0  0  0  0  0  0  0  0  0  0  0
   31.2212   35.2697   60.3802 S   0  0  0  0  0  0  0  0  0  0  0  0
   31.8934   34.1697   60.9778 O   0  0  0  0  0  0  0  0  0  0  0  0
   29.8474   35.2374   60.0180 O   0  0  0  0  0  0  0  0  0  0  0  0
   31.4012   36.5476   61.4180 N   0  0  0  0  0  0  0  0  0  0  0  0
   32.5082   36.6071   62.4092 C   0  0  0  0  0  0  0  0  0  0  0  0
   31.8677   36.3919   63.7819 C   0  0  2  0  0  0  0  0  0  0  0  0
   30.5578   35.6318   63.6079 C   0  0  0  0  0  0  0  0  0  0  0  0
   29.3803   36.5452   63.3672 C   0  0  0  0  0  0  0  0  0  0  0  0
   29.8438   37.8719   62.7604 C   0  0  1  0  0  0  0  0  0  0  0  0
   30.6817   38.6173   63.7530 C   0  0  0  0  0  0  0  0  0  0  0  0
   31.6469   37.7097   64.5016 C   0  0  0  0  0  0  0  0  0  0  0  0
   30.4830   37.6433   61.4157 C   0  0  0  0  0  0  0  0  0  0  0  0
   32.6773   34.6477   58.1573 C   0  0  0  0  0  0  0  0  0  0  0  0
   33.3726   34.9500   57.0030 C   0  0  0  0  0  0  0  0  0  0  0  0
   34.3207   37.5078   55.1662 H   0  0  0  0  0  0  0  0  0  0  0  0
   34.6146   35.8736   54.9099 H   0  0  0  0  0  0  0  0  0  0  0  0
   33.0619   38.3188   57.0644 H   0  0  0  0  0  0  0  0  0  0  0  0
   31.8158   37.7676   59.1139 H   0  0  0  0  0  0  0  0  0  0  0  0
   32.9933   37.5824   62.3707 H   0  0  0  0  0  0  0  0  0  0  0  0
   33.2345   35.8198   62.2071 H   0  0  0  0  0  0  0  0  0  0  0  0
   32.5415   35.7811   64.3827 H   0  0  0  0  0  0  0  0  0  0  0  0
   30.6499   34.9569   62.7569 H   0  0  0  0  0  0  0  0  0  0  0  0
   30.3674   35.0435   64.5055 H   0  0  0  0  0  0  0  0  0  0  0  0
   28.8777   36.7400   64.3146 H   0  0  0  0  0  0  0  0  0  0  0  0
   28.6822   36.0623   62.6834 H   0  0  0  0  0  0  0  0  0  0  0  0
   28.9482   38.4692   62.5892 H   0  0  0  0  0  0  0  0  0  0  0  0
   30.0246   39.1039   64.4739 H   0  0  0  0  0  0  0  0  0  0  0  0
   31.2531   39.3824   63.2276 H   0  0  0  0  0  0  0  0  0  0  0  0
   31.2449   37.5077   65.4945 H   0  0  0  0  0  0  0  0  0  0  0  0
   32.6038   38.2213   64.6048 H   0  0  0  0  0  0  0  0  0  0  0  0
   29.7021   37.4535   60.6793 H   0  0  0  0  0  0  0  0  0  0  0  0
   31.0321   38.5396   61.1270 H   0  0  0  0  0  0  0  0  0  0  0  0
   32.5701   33.6192   58.4689 H   0  0  0  0  0  0  0  0  0  0  0  0
   33.8088   34.1584   56.4118 H   0  0  0  0  0  0  0  0  0  0  0  0
  1  2  1  0  0  0  0
  1 20  1  0  0  0  0
  1 21  1  0  0  0  0
  2 19  2  0  0  0  0
  2  3  1  0  0  0  0
  3  4  2  0  0  0  0
  3 22  1  0  0  0  0
  4  5  1  0  0  0  0
  4 23  1  0  0  0  0
  5  6  1  0  0  0  0
  5 18  2  0  0  0  0
  6  7  2  0  0  0  0
  6  8  2  0  0  0  0
  6  9  1  0  0  0  0
  9 17  1  0  0  0  0
  9 10  1  0  0  0  0
 10 11  1  0  0  0  0
 10 24  1  0  0  0  0
 10 25  1  0  0  0  0
 11 16  1  0  0  0  0
 11 12  1  0  0  0  0
 11 26  1  1  0  0  0
 12 13  1  0  0  0  0
 12 27  1  0  0  0  0
 12 28  1  0  0  0  0
 13 14  1  0  0  0  0
 13 29  1  0  0  0  0
 13 30  1  0  0  0  0
 14 15  1  0  0  0  0
 14 17  1  0  0  0  0
 14 31  1  6  0  0  0
 15 16  1  0  0  0  0
 15 32  1  0  0  0  0
 15 33  1  0  0  0  0
 16 34  1  0  0  0  0
 16 35  1  0  0  0  0
 17 36  1  0  0  0  0
 17 37  1  0  0  0  0
 18 19  1  0  0  0  0
 18 38  1  0  0  0  0
 19 39  1  0  0  0  0
M  END
$$$$
