ZINC000000005722      none
 OpenBabel11202420153D

 32 33  0  0  0  0  0  0  0  0999 V2000
   32.0397   36.0344   60.4604 S   0  0  0  0  0  0  0  0  0  0  0  0
   32.0685   37.6144   61.1193 C   0  0  0  0  0  0  0  0  0  0  0  0
   31.6835   37.8199   62.3944 N   0  0  0  0  0  0  0  0  0  0  0  0
   31.2402   36.6914   63.2166 C   0  0  0  0  0  0  0  0  0  0  0  0
   32.1488   36.5648   64.4412 C   0  0  0  0  0  0  0  0  0  0  0  0
   32.0802   37.8338   65.2510 C   0  0  0  0  0  0  0  0  0  0  0  0
   32.8257   37.9461   66.4096 C   0  0  0  0  0  0  0  0  0  0  0  0
   32.7602   39.1200   67.1438 C   0  0  0  0  0  0  0  0  0  0  0  0
   31.9354   40.1378   66.6890 C   0  0  0  0  0  0  0  0  0  0  0  0
   31.2192   39.9533   65.5219 C   0  0  0  0  0  0  0  0  0  0  0  0
   31.3102   38.8246   64.8459 N   0  0  0  0  0  0  0  0  0  0  0  0
   32.4762   38.6525   60.3627 N   0  0  0  0  0  0  0  0  0  0  0  0
   32.8745   38.4400   59.0442 C   0  0  0  0  0  0  0  0  0  0  0  0
   33.2995   39.5149   58.2712 C   0  0  0  0  0  0  0  0  0  0  0  0
   33.6926   39.2903   56.9640 C   0  0  0  0  0  0  0  0  0  0  0  0
   33.6469   37.9918   56.4722 C   0  0  0  0  0  0  0  0  0  0  0  0
   34.1716   37.6251   54.6929 Br  0  0  0  0  0  0  0  0  0  0  0  0
   33.2137   36.9716   57.2967 C   0  0  0  0  0  0  0  0  0  0  0  0
   32.8498   37.2159   58.5412 N   0  0  0  0  0  0  0  0  0  0  0  0
   31.6997   38.7151   62.7676 H   0  0  0  0  0  0  0  0  0  0  0  0
   31.2899   35.7734   62.6309 H   0  0  0  0  0  0  0  0  0  0  0  0
   30.2136   36.8598   63.5418 H   0  0  0  0  0  0  0  0  0  0  0  0
   33.1754   36.3963   64.1160 H   0  0  0  0  0  0  0  0  0  0  0  0
   31.8191   35.7251   65.0530 H   0  0  0  0  0  0  0  0  0  0  0  0
   33.4543   37.1310   66.7364 H   0  0  0  0  0  0  0  0  0  0  0  0
   33.3349   39.2378   68.0506 H   0  0  0  0  0  0  0  0  0  0  0  0
   31.8573   41.0648   67.2378 H   0  0  0  0  0  0  0  0  0  0  0  0
   30.5777   40.7427   65.1588 H   0  0  0  0  0  0  0  0  0  0  0  0
   32.4925   39.5477   60.7359 H   0  0  0  0  0  0  0  0  0  0  0  0
   33.3220   40.5120   58.6859 H   0  0  0  0  0  0  0  0  0  0  0  0
   34.0276   40.1057   56.3402 H   0  0  0  0  0  0  0  0  0  0  0  0
   33.1761   35.9605   56.9190 H   0  0  0  0  0  0  0  0  0  0  0  0
  1  2  2  0  0  0  0
  2  3  1  0  0  0  0
  2 12  1  0  0  0  0
  3  4  1  0  0  0  0
  3 20  1  0  0  0  0
  4  5  1  0  0  0  0
  4 21  1  0  0  0  0
  4 22  1  0  0  0  0
  5  6  1  0  0  0  0
  5 23  1  0  0  0  0
  5 24  1  0  0  0  0
  6 11  2  0  0  0  0
  6  7  1  0  0  0  0
  7  8  2  0  0  0  0
  7 25  1  0  0  0  0
  8  9  1  0  0  0  0
  8 26  1  0  0  0  0
  9 10  2  0  0  0  0
  9 27  1  0  0  0  0
 10 11  1  0  0  0  0
 10 28  1  0  0  0  0
 12 13  1  0  0  0  0
 12 29  1  0  0  0  0
 13 19  2  0  0  0  0
 13 14  1  0  0  0  0
 14 15  2  0  0  0  0
 14 30  1  0  0  0  0
 15 16  1  0  0  0  0
 15 31  1  0  0  0  0
 16 17  1  0  0  0  0
 16 18  2  0  0  0  0
 18 19  1  0  0  0  0
 18 32  1  0  0  0  0
M  END
$$$$
