ZINC000000036333      none
 OpenBabel11202420153D

 36 38  0  0  0  0  0  0  0  0999 V2000
   34.2869   39.5699   55.5500 C   0  0  0  0  0  0  0  0  0  0  0  0
   33.6952   38.5950   56.5351 C   0  0  0  0  0  0  0  0  0  0  0  0
   33.3608   39.0169   57.8076 C   0  0  0  0  0  0  0  0  0  0  0  0
   32.8163   38.1189   58.7139 C   0  0  0  0  0  0  0  0  0  0  0  0
   32.4869   38.5314   59.9662 O   0  0  0  0  0  0  0  0  0  0  0  0
   31.3997   37.8596   60.6055 C   0  0  0  0  0  0  0  0  0  0  0  0
   31.1817   38.4477   61.9758 C   0  0  0  0  0  0  0  0  0  0  0  0
   30.4262   39.3794   62.1201 O   0  0  0  0  0  0  0  0  0  0  0  0
   31.8296   37.9341   63.0403 N   0  0  0  0  0  0  0  0  0  0  0  0
   32.7142   36.8899   63.0278 C   0  0  0  0  0  0  0  0  0  0  0  0
   33.1483   36.6609   64.2304 N   0  0  0  0  0  0  0  0  0  0  0  0
   32.5783   37.5360   65.1011 C   0  0  0  0  0  0  0  0  0  0  0  0
   32.6894   37.7288   66.4801 C   0  0  0  0  0  0  0  0  0  0  0  0
   31.9639   38.7262   67.0918 C   0  0  0  0  0  0  0  0  0  0  0  0
   31.1230   39.5418   66.3490 C   0  0  0  0  0  0  0  0  0  0  0  0
   31.0022   39.3644   64.9864 C   0  0  0  0  0  0  0  0  0  0  0  0
   31.7298   38.3682   64.3535 C   0  0  0  0  0  0  0  0  0  0  0  0
   32.6089   36.7991   58.3399 C   0  0  0  0  0  0  0  0  0  0  0  0
   32.9503   36.3809   57.0686 C   0  0  0  0  0  0  0  0  0  0  0  0
   33.4881   37.2792   56.1651 C   0  0  0  0  0  0  0  0  0  0  0  0
   33.8473   36.8300   54.8014 N   0  0  0  0  0  0  0  0  0  0  0  0
   34.3249   37.6193   54.0062 O   0  0  0  0  0  0  0  0  0  0  0  0
   33.6653   35.6709   54.4744 O   0  0  0  0  0  0  0  0  0  0  0  0
   35.3728   39.4759   55.5532 H   0  0  0  0  0  0  0  0  0  0  0  0
   33.9064   39.3537   54.5516 H   0  0  0  0  0  0  0  0  0  0  0  0
   34.0093   40.5855   55.8325 H   0  0  0  0  0  0  0  0  0  0  0  0
   33.5235   40.0447   58.0964 H   0  0  0  0  0  0  0  0  0  0  0  0
   30.4955   37.9826   60.0093 H   0  0  0  0  0  0  0  0  0  0  0  0
   31.6322   36.7987   60.6983 H   0  0  0  0  0  0  0  0  0  0  0  0
   33.0081   36.3375   62.1476 H   0  0  0  0  0  0  0  0  0  0  0  0
   33.3419   37.0972   67.0646 H   0  0  0  0  0  0  0  0  0  0  0  0
   32.0498   38.8745   68.1581 H   0  0  0  0  0  0  0  0  0  0  0  0
   30.5594   40.3210   66.8407 H   0  0  0  0  0  0  0  0  0  0  0  0
   30.3456   40.0023   64.4135 H   0  0  0  0  0  0  0  0  0  0  0  0
   32.1850   36.0981   59.0438 H   0  0  0  0  0  0  0  0  0  0  0  0
   32.7933   35.3525   56.7784 H   0  0  0  0  0  0  0  0  0  0  0  0
  1  2  1  0  0  0  0
  1 24  1  0  0  0  0
  1 25  1  0  0  0  0
  1 26  1  0  0  0  0
  2 20  2  0  0  0  0
  2  3  1  0  0  0  0
  3  4  2  0  0  0  0
  3 27  1  0  0  0  0
  4  5  1  0  0  0  0
  4 18  1  0  0  0  0
  5  6  1  0  0  0  0
  6  7  1  0  0  0  0
  6 28  1  0  0  0  0
  6 29  1  0  0  0  0
  7  8  2  0  0  0  0
  7  9  1  0  0  0  0
  9 17  1  0  0  0  0
  9 10  1  0  0  0  0
 10 11  2  0  0  0  0
 10 30  1  0  0  0  0
 11 12  1  0  0  0  0
 12 17  2  0  0  0  0
 12 13  1  0  0  0  0
 13 14  2  0  0  0  0
 13 31  1  0  0  0  0
 14 15  1  0  0  0  0
 14 32  1  0  0  0  0
 15 16  2  0  0  0  0
 15 33  1  0  0  0  0
 16 17  1  0  0  0  0
 16 34  1  0  0  0  0
 18 19  2  0  0  0  0
 18 35  1  0  0  0  0
 19 20  1  0  0  0  0
 19 36  1  0  0  0  0
 20 21  1  0  0  0  0
 21 22  2  0  0  0  0
 21 23  2  0  0  0  0
M  END
$$$$
