ZINC000000050551      none
 OpenBabel11202420153D

 33 34  0  0  0  0  0  0  0  0999 V2000
   29.6265   38.7613   63.7094 C   0  0  0  0  0  0  0  0  0  0  0  0
   30.9090   38.5267   64.4649 C   0  0  0  0  0  0  0  0  0  0  0  0
   31.3609   39.4679   65.3692 C   0  0  0  0  0  0  0  0  0  0  0  0
   32.5374   39.2527   66.0634 C   0  0  0  0  0  0  0  0  0  0  0  0
   33.2654   38.0958   65.8544 C   0  0  0  0  0  0  0  0  0  0  0  0
   32.8160   37.1483   64.9559 C   0  0  0  0  0  0  0  0  0  0  0  0
   31.6376   37.3636   64.2531 C   0  0  0  0  0  0  0  0  0  0  0  0
   31.1826   36.4082   63.3376 N   0  0  0  0  0  0  0  0  0  0  0  0
   32.0659   35.6345   62.6761 C   0  0  0  0  0  0  0  0  0  0  0  0
   33.2552   35.7664   62.8743 O   0  0  0  0  0  0  0  0  0  0  0  0
   31.5762   34.6097   61.6858 C   0  0  0  0  0  0  0  0  0  0  0  0
   30.8439   35.2629   60.6470 O   0  0  0  0  0  0  0  0  0  0  0  0
   31.5108   36.1915   59.9119 C   0  0  0  0  0  0  0  0  0  0  0  0
   31.5155   37.5203   60.3103 C   0  0  0  0  0  0  0  0  0  0  0  0
   32.1944   38.4623   59.5617 C   0  0  0  0  0  0  0  0  0  0  0  0
   32.8687   38.0820   58.4159 C   0  0  0  0  0  0  0  0  0  0  0  0
   32.8654   36.7587   58.0160 C   0  0  0  0  0  0  0  0  0  0  0  0
   32.1928   35.8110   58.7646 C   0  0  0  0  0  0  0  0  0  0  0  0
   32.1951   33.9996   58.2217 Br  0  0  0  0  0  0  0  0  0  0  0  0
   28.7906   38.3515   64.2763 H   0  0  0  0  0  0  0  0  0  0  0  0
   29.4790   39.8319   63.5674 H   0  0  0  0  0  0  0  0  0  0  0  0
   29.6820   38.2702   62.7379 H   0  0  0  0  0  0  0  0  0  0  0  0
   30.7948   40.3726   65.5344 H   0  0  0  0  0  0  0  0  0  0  0  0
   32.8886   39.9898   66.7702 H   0  0  0  0  0  0  0  0  0  0  0  0
   34.1842   37.9312   66.3977 H   0  0  0  0  0  0  0  0  0  0  0  0
   33.3825   36.2426   64.7968 H   0  0  0  0  0  0  0  0  0  0  0  0
   30.2315   36.3029   63.1791 H   0  0  0  0  0  0  0  0  0  0  0  0
   32.4287   34.0848   61.2544 H   0  0  0  0  0  0  0  0  0  0  0  0
   30.9282   33.8949   62.1930 H   0  0  0  0  0  0  0  0  0  0  0  0
   30.9887   37.8183   61.2046 H   0  0  0  0  0  0  0  0  0  0  0  0
   32.1983   39.4967   59.8717 H   0  0  0  0  0  0  0  0  0  0  0  0
   33.3984   38.8202   57.8321 H   0  0  0  0  0  0  0  0  0  0  0  0
   33.3927   36.4642   57.1206 H   0  0  0  0  0  0  0  0  0  0  0  0
  1  2  1  0  0  0  0
  1 20  1  0  0  0  0
  1 21  1  0  0  0  0
  1 22  1  0  0  0  0
  2  7  2  0  0  0  0
  2  3  1  0  0  0  0
  3  4  2  0  0  0  0
  3 23  1  0  0  0  0
  4  5  1  0  0  0  0
  4 24  1  0  0  0  0
  5  6  2  0  0  0  0
  5 25  1  0  0  0  0
  6  7  1  0  0  0  0
  6 26  1  0  0  0  0
  7  8  1  0  0  0  0
  8  9  1  0  0  0  0
  8 27  1  0  0  0  0
  9 10  2  0  0  0  0
  9 11  1  0  0  0  0
 11 12  1  0  0  0  0
 11 28  1  0  0  0  0
 11 29  1  0  0  0  0
 12 13  1  0  0  0  0
 13 18  2  0  0  0  0
 13 14  1  0  0  0  0
 14 15  2  0  0  0  0
 14 30  1  0  0  0  0
 15 16  1  0  0  0  0
 15 31  1  0  0  0  0
 16 17  2  0  0  0  0
 16 32  1  0  0  0  0
 17 18  1  0  0  0  0
 17 33  1  0  0  0  0
 18 19  1  0  0  0  0
M  END
$$$$
