ZINC000000030052      none
 OpenBabel11202420163D

 35 36  0  0  0  0  0  0  0  0999 V2000
   31.0888   38.2429   63.7262 C   0  0  0  0  0  0  0  0  0  0  0  0
   31.5962   37.5296   62.4995 C   0  0  0  0  0  0  0  0  0  0  0  0
   32.5338   36.7724   62.5854 O   0  0  0  0  0  0  0  0  0  0  0  0
   31.0062   37.7356   61.3108 O   0  0  0  0  0  0  0  0  0  0  0  0
   31.5125   37.0618   60.2463 C   0  0  0  0  0  0  0  0  0  0  0  0
   31.5272   35.6723   60.2490 C   0  0  0  0  0  0  0  0  0  0  0  0
   32.0404   34.9851   59.1713 C   0  0  0  0  0  0  0  0  0  0  0  0
   32.5466   35.6869   58.0744 C   0  0  0  0  0  0  0  0  0  0  0  0
   33.0976   34.9542   56.9170 C   0  0  0  0  0  0  0  0  0  0  0  0
   33.5627   33.8411   57.0677 O   0  0  0  0  0  0  0  0  0  0  0  0
   33.0850   35.5194   55.6936 N   0  0  0  0  0  0  0  0  0  0  0  0
   33.6318   34.7923   54.5452 C   0  0  0  0  0  0  0  0  0  0  0  0
   32.8867   33.4538   54.3638 C   0  0  0  0  0  0  0  0  0  0  0  0
   33.9907   32.4632   53.9154 C   0  0  0  0  0  0  0  0  0  0  0  0
   35.2113   32.9049   54.7605 C   0  0  0  0  0  0  0  0  0  0  0  0
   35.1092   34.4437   54.7971 C   0  0  0  0  0  0  0  0  0  0  0  0
   32.5353   37.0839   58.0782 C   0  0  0  0  0  0  0  0  0  0  0  0
   32.0151   37.7637   59.1572 C   0  0  0  0  0  0  0  0  0  0  0  0
   30.2454   38.8777   63.4546 H   0  0  0  0  0  0  0  0  0  0  0  0
   30.7684   37.5096   64.4662 H   0  0  0  0  0  0  0  0  0  0  0  0
   31.8859   38.8572   64.1450 H   0  0  0  0  0  0  0  0  0  0  0  0
   31.1360   35.1305   61.0974 H   0  0  0  0  0  0  0  0  0  0  0  0
   32.0518   33.9052   59.1743 H   0  0  0  0  0  0  0  0  0  0  0  0
   32.7139   36.4074   55.5734 H   0  0  0  0  0  0  0  0  0  0  0  0
   33.5393   35.3964   53.6428 H   0  0  0  0  0  0  0  0  0  0  0  0
   32.4457   33.1317   55.3071 H   0  0  0  0  0  0  0  0  0  0  0  0
   32.1197   33.5453   53.5947 H   0  0  0  0  0  0  0  0  0  0  0  0
   34.1980   32.5728   52.8508 H   0  0  0  0  0  0  0  0  0  0  0  0
   33.7104   31.4360   54.1489 H   0  0  0  0  0  0  0  0  0  0  0  0
   36.1397   32.5952   54.2807 H   0  0  0  0  0  0  0  0  0  0  0  0
   35.1484   32.4944   55.7684 H   0  0  0  0  0  0  0  0  0  0  0  0
   35.7336   34.8779   54.0162 H   0  0  0  0  0  0  0  0  0  0  0  0
   35.4196   34.8161   55.7733 H   0  0  0  0  0  0  0  0  0  0  0  0
   32.9298   37.6301   57.2341 H   0  0  0  0  0  0  0  0  0  0  0  0
   32.0018   38.8436   59.1589 H   0  0  0  0  0  0  0  0  0  0  0  0
  1  2  1  0  0  0  0
  1 19  1  0  0  0  0
  1 20  1  0  0  0  0
  1 21  1  0  0  0  0
  2  3  2  0  0  0  0
  2  4  1  0  0  0  0
  4  5  1  0  0  0  0
  5 18  2  0  0  0  0
  5  6  1  0  0  0  0
  6  7  2  0  0  0  0
  6 22  1  0  0  0  0
  7  8  1  0  0  0  0
  7 23  1  0  0  0  0
  8  9  1  0  0  0  0
  8 17  2  0  0  0  0
  9 10  2  0  0  0  0
  9 11  1  0  0  0  0
 11 12  1  0  0  0  0
 11 24  1  0  0  0  0
 12 16  1  0  0  0  0
 12 13  1  0  0  0  0
 12 25  1  0  0  0  0
 13 14  1  0  0  0  0
 13 26  1  0  0  0  0
 13 27  1  0  0  0  0
 14 15  1  0  0  0  0
 14 28  1  0  0  0  0
 14 29  1  0  0  0  0
 15 16  1  0  0  0  0
 15 30  1  0  0  0  0
 15 31  1  0  0  0  0
 16 32  1  0  0  0  0
 16 33  1  0  0  0  0
 17 18  1  0  0  0  0
 17 34  1  0  0  0  0
 18 35  1  0  0  0  0
M  END
$$$$
