ZINC000000046879      none
 OpenBabel11202420153D

 38 40  0  0  0  0  0  0  0  0999 V2000
   33.2018   39.6628   58.1031 C   0  0  0  0  0  0  0  0  0  0  0  0
   32.9064   38.2380   58.4953 C   0  0  0  0  0  0  0  0  0  0  0  0
   32.5336   37.8305   59.6816 N   0  0  0  0  0  0  0  0  0  0  0  0
   32.3605   36.4412   59.6332 N   0  0  0  0  0  0  0  0  0  0  0  0
   31.9469   35.5849   60.7475 C   0  0  0  0  0  0  0  0  0  0  0  0
   31.7303   36.4295   61.9767 C   0  0  0  0  0  0  0  0  0  0  0  0
   32.3840   36.2229   62.9772 O   0  0  0  0  0  0  0  0  0  0  0  0
   30.8104   37.4143   61.9640 N   0  0  0  0  0  0  0  0  0  0  0  0
   30.6091   38.1996   63.1066 C   0  0  0  0  0  0  0  0  0  0  0  0
   29.3564   38.7388   63.3671 C   0  0  0  0  0  0  0  0  0  0  0  0
   29.1592   39.5186   64.4899 C   0  0  0  0  0  0  0  0  0  0  0  0
   30.2077   39.7563   65.3664 C   0  0  0  0  0  0  0  0  0  0  0  0
   31.4611   39.2119   65.1121 C   0  0  0  0  0  0  0  0  0  0  0  0
   31.6603   38.4346   63.9814 C   0  0  0  0  0  0  0  0  0  0  0  0
   32.5011   39.4305   65.9626 O   0  0  0  0  0  0  0  0  0  0  0  0
   32.3622   40.5185   66.8830 C   0  0  0  0  0  0  0  0  0  0  0  0
   30.9664   40.4366   67.5157 C   0  0  0  0  0  0  0  0  0  0  0  0
   29.9937   40.5267   66.4690 O   0  0  0  0  0  0  0  0  0  0  0  0
   32.6479   36.0300   58.3793 C   0  0  0  0  0  0  0  0  0  0  0  0
   32.6011   34.6099   57.8771 C   0  0  0  0  0  0  0  0  0  0  0  0
   32.9827   37.1227   57.6537 C   0  0  0  0  0  0  0  0  0  0  0  0
   33.4337   37.1369   55.9774 Cl  0  0  0  0  0  0  0  0  0  0  0  0
   34.2576   39.8746   58.2722 H   0  0  0  0  0  0  0  0  0  0  0  0
   32.9671   39.8053   57.0483 H   0  0  0  0  0  0  0  0  0  0  0  0
   32.5947   40.3387   58.7050 H   0  0  0  0  0  0  0  0  0  0  0  0
   32.7239   34.8466   60.9461 H   0  0  0  0  0  0  0  0  0  0  0  0
   31.0188   35.0750   60.4889 H   0  0  0  0  0  0  0  0  0  0  0  0
   30.2877   37.5795   61.1637 H   0  0  0  0  0  0  0  0  0  0  0  0
   28.5367   38.5518   62.6891 H   0  0  0  0  0  0  0  0  0  0  0  0
   28.1851   39.9408   64.6883 H   0  0  0  0  0  0  0  0  0  0  0  0
   32.6339   38.0121   63.7814 H   0  0  0  0  0  0  0  0  0  0  0  0
   32.4706   41.4647   66.3527 H   0  0  0  0  0  0  0  0  0  0  0  0
   33.1230   40.4423   67.6597 H   0  0  0  0  0  0  0  0  0  0  0  0
   30.8310   41.2615   68.2153 H   0  0  0  0  0  0  0  0  0  0  0  0
   30.8550   39.4878   68.0404 H   0  0  0  0  0  0  0  0  0  0  0  0
   31.6056   34.3946   57.4889 H   0  0  0  0  0  0  0  0  0  0  0  0
   33.3364   34.4809   57.0831 H   0  0  0  0  0  0  0  0  0  0  0  0
   32.8271   33.9272   58.6963 H   0  0  0  0  0  0  0  0  0  0  0  0
  1  2  1  0  0  0  0
  1 23  1  0  0  0  0
  1 24  1  0  0  0  0
  1 25  1  0  0  0  0
  2 21  1  0  0  0  0
  2  3  2  0  0  0  0
  3  4  1  0  0  0  0
  4  5  1  0  0  0  0
  4 19  1  0  0  0  0
  5  6  1  0  0  0  0
  5 26  1  0  0  0  0
  5 27  1  0  0  0  0
  6  7  2  0  0  0  0
  6  8  1  0  0  0  0
  8  9  1  0  0  0  0
  8 28  1  0  0  0  0
  9 14  2  0  0  0  0
  9 10  1  0  0  0  0
 10 11  2  0  0  0  0
 10 29  1  0  0  0  0
 11 12  1  0  0  0  0
 11 30  1  0  0  0  0
 12 18  1  0  0  0  0
 12 13  2  0  0  0  0
 13 14  1  0  0  0  0
 13 15  1  0  0  0  0
 14 31  1  0  0  0  0
 15 16  1  0  0  0  0
 16 17  1  0  0  0  0
 16 32  1  0  0  0  0
 16 33  1  0  0  0  0
 17 18  1  0  0  0  0
 17 34  1  0  0  0  0
 17 35  1  0  0  0  0
 19 20  1  0  0  0  0
 19 21  2  0  0  0  0
 20 36  1  0  0  0  0
 20 37  1  0  0  0  0
 20 38  1  0  0  0  0
 21 22  1  0  0  0  0
M  END
$$$$
