ZINC000000001258      none
 OpenBabel11202420153D

 40 43  0  0  1  0  0  0  0  0999 V2000
   32.6344   36.7498   63.0562 C   0  0  0  0  0  0  0  0  0  0  0  0
   31.1048   36.7187   63.0422 C   0  0  1  0  0  0  0  0  0  0  0  0
   30.5756   37.8697   62.2098 C   0  0  0  0  0  0  0  0  0  0  0  0
   31.3376   37.8438   60.8803 C   0  0  0  0  0  0  0  0  0  0  0  0
   31.5796   36.4547   60.3532 C   0  0  0  0  0  0  0  0  0  0  0  0
   31.3122   35.3394   61.0255 C   0  0  0  0  0  0  0  0  0  0  0  0
   31.7361   33.9930   60.4970 C   0  0  0  0  0  0  0  0  0  0  0  0
   31.5582   33.9232   58.9827 C   0  0  0  0  0  0  0  0  0  0  0  0
   32.2299   35.1152   58.3509 C   0  0  0  0  0  0  0  0  0  0  0  0
   32.8379   35.0036   57.1196 C   0  0  0  0  0  0  0  0  0  0  0  0
   33.4382   36.1154   56.5420 C   0  0  0  0  0  0  0  0  0  0  0  0
   34.0435   36.0052   55.3305 O   0  0  0  0  0  0  0  0  0  0  0  0
   33.4172   37.3402   57.1964 C   0  0  0  0  0  0  0  0  0  0  0  0
   32.8136   37.4558   58.4311 C   0  0  0  0  0  0  0  0  0  0  0  0
   32.2189   36.3378   59.0169 C   0  0  0  0  0  0  0  0  0  0  0  0
   30.6111   35.4259   62.3381 C   0  0  1  0  0  0  0  0  0  0  0  0
   29.5314   35.4681   62.1946 H   0  0  0  0  0  0  0  0  0  0  0  0
   30.9585   34.3671   63.3875 C   0  0  0  0  0  0  0  0  0  0  0  0
   30.5519   35.0691   64.7137 C   0  0  0  0  0  0  0  0  0  0  0  0
   30.5846   36.5706   64.4394 C   0  0  0  0  0  0  0  0  0  0  0  0
   30.2591   37.4562   65.1932 O   0  0  0  0  0  0  0  0  0  0  0  0
   32.9748   37.6970   63.4745 H   0  0  0  0  0  0  0  0  0  0  0  0
   33.0090   35.9277   63.6661 H   0  0  0  0  0  0  0  0  0  0  0  0
   33.0092   36.6468   62.0378 H   0  0  0  0  0  0  0  0  0  0  0  0
   30.7551   38.8142   62.7236 H   0  0  0  0  0  0  0  0  0  0  0  0
   29.5082   37.7410   62.0299 H   0  0  0  0  0  0  0  0  0  0  0  0
   32.2997   38.3366   61.0198 H   0  0  0  0  0  0  0  0  0  0  0  0
   30.7641   38.4027   60.1407 H   0  0  0  0  0  0  0  0  0  0  0  0
   32.7847   33.8252   60.7429 H   0  0  0  0  0  0  0  0  0  0  0  0
   31.1297   33.2172   60.9647 H   0  0  0  0  0  0  0  0  0  0  0  0
   30.4957   33.9325   58.7398 H   0  0  0  0  0  0  0  0  0  0  0  0
   32.0114   33.0068   58.6045 H   0  0  0  0  0  0  0  0  0  0  0  0
   32.8518   34.0532   56.6068 H   0  0  0  0  0  0  0  0  0  0  0  0
   34.0045   35.1168   54.9508 H   0  0  0  0  0  0  0  0  0  0  0  0
   33.8784   38.2031   56.7394 H   0  0  0  0  0  0  0  0  0  0  0  0
   32.8011   38.4074   58.9420 H   0  0  0  0  0  0  0  0  0  0  0  0
   30.3726   33.4610   63.2329 H   0  0  0  0  0  0  0  0  0  0  0  0
   32.0259   34.1463   63.3770 H   0  0  0  0  0  0  0  0  0  0  0  0
   29.5465   34.7645   65.0046 H   0  0  0  0  0  0  0  0  0  0  0  0
   31.2609   34.8172   65.5023 H   0  0  0  0  0  0  0  0  0  0  0  0
  1 22  1  0  0  0  0
  1 23  1  0  0  0  0
  1 24  1  0  0  0  0
  2  1  1  1  0  0  0
  2 16  1  0  0  0  0
  2 20  1  0  0  0  0
  2  3  1  0  0  0  0
  3  4  1  0  0  0  0
  3 25  1  0  0  0  0
  3 26  1  0  0  0  0
  4  5  1  0  0  0  0
  4 27  1  0  0  0  0
  4 28  1  0  0  0  0
  5 15  1  0  0  0  0
  5  6  2  0  0  0  0
  6  7  1  0  0  0  0
  6 16  1  0  0  0  0
  7  8  1  0  0  0  0
  7 29  1  0  0  0  0
  7 30  1  0  0  0  0
  8  9  1  0  0  0  0
  8 31  1  0  0  0  0
  8 32  1  0  0  0  0
  9 15  2  0  0  0  0
  9 10  1  0  0  0  0
 10 11  2  0  0  0  0
 10 33  1  0  0  0  0
 11 12  1  0  0  0  0
 11 13  1  0  0  0  0
 12 34  1  0  0  0  0
 13 14  2  0  0  0  0
 13 35  1  0  0  0  0
 14 15  1  0  0  0  0
 14 36  1  0  0  0  0
 16 17  1  6  0  0  0
 16 18  1  0  0  0  0
 18 19  1  0  0  0  0
 18 37  1  0  0  0  0
 18 38  1  0  0  0  0
 19 20  1  0  0  0  0
 19 39  1  0  0  0  0
 19 40  1  0  0  0  0
 20 21  2  0  0  0  0
M  END
$$$$
