ZINC000000020221      none
 OpenBabel11202420153D

 33 34  0  0  0  0  0  0  0  0999 V2000
   34.8640   37.4717   52.5353 C   0  0  0  0  0  0  0  0  0  0  0  0
   34.4702   36.3089   53.2667 O   0  0  0  0  0  0  0  0  0  0  0  0
   34.0329   36.4991   54.5391 C   0  0  0  0  0  0  0  0  0  0  0  0
   33.9872   37.7935   55.0667 C   0  0  0  0  0  0  0  0  0  0  0  0
   33.5499   38.0162   56.3350 C   0  0  0  0  0  0  0  0  0  0  0  0
   33.1462   36.9320   57.1338 C   0  0  0  0  0  0  0  0  0  0  0  0
   32.6931   37.1258   58.4498 C   0  0  0  0  0  0  0  0  0  0  0  0
   32.3047   36.0541   59.1934 C   0  0  0  0  0  0  0  0  0  0  0  0
   31.8193   36.2663   60.6042 C   0  0  0  0  0  0  0  0  0  0  0  0
   30.3056   36.4889   60.5948 C   0  0  0  0  0  0  0  0  0  0  0  0
   29.8203   36.7011   62.0056 C   0  0  0  0  0  0  0  0  0  0  0  0
   29.7674   38.0920   62.5832 C   0  0  0  0  0  0  0  0  0  0  0  0
   29.4738   35.7565   62.6734 O   0  0  0  0  0  0  0  0  0  0  0  0
   32.3493   34.7632   58.6697 C   0  0  0  0  0  0  0  0  0  0  0  0
   32.7823   34.5370   57.3995 C   0  0  0  0  0  0  0  0  0  0  0  0
   33.1913   35.6193   56.6010 C   0  0  0  0  0  0  0  0  0  0  0  0
   33.6434   35.4240   55.2857 C   0  0  0  0  0  0  0  0  0  0  0  0
   35.1910   37.1797   51.5372 H   0  0  0  0  0  0  0  0  0  0  0  0
   34.0181   38.1544   52.4553 H   0  0  0  0  0  0  0  0  0  0  0  0
   35.6834   37.9678   53.0554 H   0  0  0  0  0  0  0  0  0  0  0  0
   34.3001   38.6283   54.4573 H   0  0  0  0  0  0  0  0  0  0  0  0
   33.5160   39.0215   56.7282 H   0  0  0  0  0  0  0  0  0  0  0  0
   32.6530   38.1203   58.8690 H   0  0  0  0  0  0  0  0  0  0  0  0
   32.0536   35.3876   61.2051 H   0  0  0  0  0  0  0  0  0  0  0  0
   32.3124   37.1399   61.0305 H   0  0  0  0  0  0  0  0  0  0  0  0
   30.0714   37.3677   59.9939 H   0  0  0  0  0  0  0  0  0  0  0  0
   29.8126   35.6153   60.1685 H   0  0  0  0  0  0  0  0  0  0  0  0
   28.7932   38.5349   62.3754 H   0  0  0  0  0  0  0  0  0  0  0  0
   29.9224   38.0441   63.6610 H   0  0  0  0  0  0  0  0  0  0  0  0
   30.5483   38.7031   62.1306 H   0  0  0  0  0  0  0  0  0  0  0  0
   32.0354   33.9300   59.2810 H   0  0  0  0  0  0  0  0  0  0  0  0
   32.8120   33.5313   57.0071 H   0  0  0  0  0  0  0  0  0  0  0  0
   33.6825   34.4292   54.8669 H   0  0  0  0  0  0  0  0  0  0  0  0
  1  2  1  0  0  0  0
  1 18  1  0  0  0  0
  1 19  1  0  0  0  0
  1 20  1  0  0  0  0
  2  3  1  0  0  0  0
  3 17  2  0  0  0  0
  3  4  1  0  0  0  0
  4  5  2  0  0  0  0
  4 21  1  0  0  0  0
  5  6  1  0  0  0  0
  5 22  1  0  0  0  0
  6 16  2  0  0  0  0
  6  7  1  0  0  0  0
  7  8  2  0  0  0  0
  7 23  1  0  0  0  0
  8  9  1  0  0  0  0
  8 14  1  0  0  0  0
  9 10  1  0  0  0  0
  9 24  1  0  0  0  0
  9 25  1  0  0  0  0
 10 11  1  0  0  0  0
 10 26  1  0  0  0  0
 10 27  1  0  0  0  0
 11 12  1  0  0  0  0
 11 13  2  0  0  0  0
 12 28  1  0  0  0  0
 12 29  1  0  0  0  0
 12 30  1  0  0  0  0
 14 15  2  0  0  0  0
 14 31  1  0  0  0  0
 15 16  1  0  0  0  0
 15 32  1  0  0  0  0
 16 17  1  0  0  0  0
 17 33  1  0  0  0  0
M  END
$$$$
