ZINC000000013156      none
 OpenBabel11202420153D

 23 24  0  0  0  0  0  0  0  0999 V2000
   30.4171   38.0463   64.3303 N   0  0  0  0  0  0  0  0  0  0  0  0
   30.8356   37.5888   63.0930 C   0  0  0  0  0  0  0  0  0  0  0  0
   32.1327   37.4354   62.8576 N   0  0  0  0  0  0  0  0  0  0  0  0
   32.5668   37.0127   61.7222 N   0  0  0  0  0  0  0  0  0  0  0  0
   31.7182   36.7160   60.7458 C   0  0  0  0  0  0  0  0  0  0  0  0
   32.2165   36.2297   59.4375 C   0  0  0  0  0  0  0  0  0  0  0  0
   32.3956   34.8640   59.2205 C   0  0  0  0  0  0  0  0  0  0  0  0
   32.8543   34.4159   57.9988 C   0  0  0  0  0  0  0  0  0  0  0  0
   33.1478   35.3189   56.9925 C   0  0  0  0  0  0  0  0  0  0  0  0
   32.9780   36.6764   57.2023 C   0  0  0  0  0  0  0  0  0  0  0  0
   33.3493   37.8025   55.9344 Cl  0  0  0  0  0  0  0  0  0  0  0  0
   32.5135   37.1367   58.4204 C   0  0  0  0  0  0  0  0  0  0  0  0
   32.3002   38.8395   58.6831 Cl  0  0  0  0  0  0  0  0  0  0  0  0
   30.3365   36.8709   60.9722 C   0  0  0  0  0  0  0  0  0  0  0  0
   29.4196   36.5729   59.9801 N   0  0  0  0  0  0  0  0  0  0  0  0
   29.9338   37.3151   62.1584 N   0  0  0  0  0  0  0  0  0  0  0  0
   31.0701   38.2521   65.0174 H   0  0  0  0  0  0  0  0  0  0  0  0
   29.4709   38.1612   64.5102 H   0  0  0  0  0  0  0  0  0  0  0  0
   32.1713   34.1576   60.0061 H   0  0  0  0  0  0  0  0  0  0  0  0
   32.9889   33.3578   57.8290 H   0  0  0  0  0  0  0  0  0  0  0  0
   33.5104   34.9631   56.0395 H   0  0  0  0  0  0  0  0  0  0  0  0
   29.7263   36.3521   59.0868 H   0  0  0  0  0  0  0  0  0  0  0  0
   28.4703   36.5810   60.1788 H   0  0  0  0  0  0  0  0  0  0  0  0
  1  2  1  0  0  0  0
  1 17  1  0  0  0  0
  1 18  1  0  0  0  0
  2 16  2  0  0  0  0
  2  3  1  0  0  0  0
  3  4  2  0  0  0  0
  4  5  1  0  0  0  0
  5  6  1  0  0  0  0
  5 14  2  0  0  0  0
  6 12  2  0  0  0  0
  6  7  1  0  0  0  0
  7  8  2  0  0  0  0
  7 19  1  0  0  0  0
  8  9  1  0  0  0  0
  8 20  1  0  0  0  0
  9 10  2  0  0  0  0
  9 21  1  0  0  0  0
 10 11  1  0  0  0  0
 10 12  1  0  0  0  0
 12 13  1  0  0  0  0
 14 15  1  0  0  0  0
 14 16  1  0  0  0  0
 15 22  1  0  0  0  0
 15 23  1  0  0  0  0
M  END
$$$$
