ZINC000000001074      none
 OpenBabel11202420153D

 47 49  0  0  0  0  0  0  0  0999 V2000
   31.5965   35.7370   65.1645 C   0  0  0  0  0  0  0  0  0  0  0  0
   30.6813   35.3796   64.1268 O   0  0  0  0  0  0  0  0  0  0  0  0
   31.1106   35.5309   62.8468 C   0  0  0  0  0  0  0  0  0  0  0  0
   30.9018   36.7346   62.1842 C   0  0  0  0  0  0  0  0  0  0  0  0
   31.3366   36.8869   60.8909 C   0  0  0  0  0  0  0  0  0  0  0  0
   31.9970   35.8349   60.2391 C   0  0  0  0  0  0  0  0  0  0  0  0
   32.2000   34.6264   60.9002 C   0  0  0  0  0  0  0  0  0  0  0  0
   31.7593   34.4784   62.2032 C   0  0  0  0  0  0  0  0  0  0  0  0
   31.9590   33.3030   62.8576 O   0  0  0  0  0  0  0  0  0  0  0  0
   30.9342   32.3139   62.7418 C   0  0  0  0  0  0  0  0  0  0  0  0
   32.4476   36.0467   58.8520 C   0  0  0  0  0  0  0  0  0  0  0  0
   32.6869   34.9986   58.0114 C   0  0  0  0  0  0  0  0  0  0  0  0
   33.1005   35.2722   56.6958 C   0  0  0  0  0  0  0  0  0  0  0  0
   33.3534   34.2383   55.8216 N   0  0  0  0  0  0  0  0  0  0  0  0
   33.7846   34.5264   54.4515 C   0  0  0  0  0  0  0  0  0  0  0  0
   35.0971   35.3119   54.4845 C   0  0  0  0  0  0  0  0  0  0  0  0
   33.9954   33.2126   53.6963 C   0  0  0  0  0  0  0  0  0  0  0  0
   32.7118   35.3556   53.7428 C   0  0  0  0  0  0  0  0  0  0  0  0
   33.2469   36.5314   56.2992 N   0  0  0  0  0  0  0  0  0  0  0  0
   33.0136   37.5474   57.1276 C   0  0  0  0  0  0  0  0  0  0  0  0
   33.1544   38.6915   56.7284 O   0  0  0  0  0  0  0  0  0  0  0  0
   32.6259   37.3329   58.3965 N   0  0  0  0  0  0  0  0  0  0  0  0
   32.3928   38.4581   59.3090 C   0  0  0  0  0  0  0  0  0  0  0  0
   31.1271   38.1763   60.1333 C   0  0  0  0  0  0  0  0  0  0  0  0
   31.1295   35.5685   66.1347 H   0  0  0  0  0  0  0  0  0  0  0  0
   32.4953   35.1256   65.0828 H   0  0  0  0  0  0  0  0  0  0  0  0
   31.8631   36.7894   65.0674 H   0  0  0  0  0  0  0  0  0  0  0  0
   30.3989   37.5483   62.6855 H   0  0  0  0  0  0  0  0  0  0  0  0
   32.7024   33.8113   60.4006 H   0  0  0  0  0  0  0  0  0  0  0  0
   31.2184   31.4280   63.3097 H   0  0  0  0  0  0  0  0  0  0  0  0
   29.9986   32.7123   63.1342 H   0  0  0  0  0  0  0  0  0  0  0  0
   30.8038   32.0467   61.6930 H   0  0  0  0  0  0  0  0  0  0  0  0
   32.5609   33.9807   58.3496 H   0  0  0  0  0  0  0  0  0  0  0  0
   33.2459   33.3193   56.1131 H   0  0  0  0  0  0  0  0  0  0  0  0
   35.8616   34.7212   54.9895 H   0  0  0  0  0  0  0  0  0  0  0  0
   35.4182   35.5263   53.4651 H   0  0  0  0  0  0  0  0  0  0  0  0
   34.9470   36.2479   55.0225 H   0  0  0  0  0  0  0  0  0  0  0  0
   33.0603   32.6531   53.6727 H   0  0  0  0  0  0  0  0  0  0  0  0
   34.3163   33.4271   52.6768 H   0  0  0  0  0  0  0  0  0  0  0  0
   34.7599   32.6219   54.2010 H   0  0  0  0  0  0  0  0  0  0  0  0
   32.5615   36.2916   54.2809 H   0  0  0  0  0  0  0  0  0  0  0  0
   33.0326   35.5700   52.7234 H   0  0  0  0  0  0  0  0  0  0  0  0
   31.7767   34.7959   53.7192 H   0  0  0  0  0  0  0  0  0  0  0  0
   32.2568   39.3733   58.7328 H   0  0  0  0  0  0  0  0  0  0  0  0
   33.2462   38.5711   59.9775 H   0  0  0  0  0  0  0  0  0  0  0  0
   30.2694   38.0769   59.4682 H   0  0  0  0  0  0  0  0  0  0  0  0
   30.9554   38.9919   60.8357 H   0  0  0  0  0  0  0  0  0  0  0  0
  1  2  1  0  0  0  0
  1 25  1  0  0  0  0
  1 26  1  0  0  0  0
  1 27  1  0  0  0  0
  2  3  1  0  0  0  0
  3  8  2  0  0  0  0
  3  4  1  0  0  0  0
  4  5  2  0  0  0  0
  4 28  1  0  0  0  0
  5 24  1  0  0  0  0
  5  6  1  0  0  0  0
  6  7  2  0  0  0  0
  6 11  1  0  0  0  0
  7  8  1  0  0  0  0
  7 29  1  0  0  0  0
  8  9  1  0  0  0  0
  9 10  1  0  0  0  0
 10 30  1  0  0  0  0
 10 31  1  0  0  0  0
 10 32  1  0  0  0  0
 11 22  1  0  0  0  0
 11 12  2  0  0  0  0
 12 13  1  0  0  0  0
 12 33  1  0  0  0  0
 13 14  1  0  0  0  0
 13 19  2  0  0  0  0
 14 15  1  0  0  0  0
 14 34  1  0  0  0  0
 15 16  1  0  0  0  0
 15 17  1  0  0  0  0
 15 18  1  0  0  0  0
 16 35  1  0  0  0  0
 16 36  1  0  0  0  0
 16 37  1  0  0  0  0
 17 38  1  0  0  0  0
 17 39  1  0  0  0  0
 17 40  1  0  0  0  0
 18 41  1  0  0  0  0
 18 42  1  0  0  0  0
 18 43  1  0  0  0  0
 19 20  1  0  0  0  0
 20 21  2  0  0  0  0
 20 22  1  0  0  0  0
 22 23  1  0  0  0  0
 23 24  1  0  0  0  0
 23 44  1  0  0  0  0
 23 45  1  0  0  0  0
 24 46  1  0  0  0  0
 24 47  1  0  0  0  0
M  END
$$$$
