ZINC000000038340      none
 OpenBabel11202420153D

 41 42  0  0  1  0  0  0  0  0999 V2000
   33.5823   33.9356   54.6015 C   0  0  0  0  0  0  0  0  0  0  0  0
   34.3279   35.2199   54.9694 C   0  0  0  0  0  0  0  0  0  0  0  0
   34.2745   36.1956   53.7922 C   0  0  0  0  0  0  0  0  0  0  0  0
   33.6782   35.8503   56.1742 C   0  0  0  0  0  0  0  0  0  0  0  0
   33.7129   37.2230   56.3376 C   0  0  0  0  0  0  0  0  0  0  0  0
   33.1184   37.8038   57.4406 C   0  0  0  0  0  0  0  0  0  0  0  0
   32.4853   37.0079   58.3861 C   0  0  0  0  0  0  0  0  0  0  0  0
   31.8820   37.5933   59.5049 N   0  0  0  0  0  0  0  0  0  0  0  0
   31.8123   36.9130   60.6663 C   0  0  0  0  0  0  0  0  0  0  0  0
   32.2740   35.7909   60.7421 O   0  0  0  0  0  0  0  0  0  0  0  0
   31.2313   37.4768   61.7437 N   0  0  0  0  0  0  0  0  0  0  0  0
   31.1557   36.7375   63.0062 C   0  0  0  0  0  0  0  0  0  0  0  0
   31.8938   37.5151   64.0978 C   0  0  2  0  0  0  0  0  0  0  0  0
   32.9418   37.6513   63.8313 H   0  0  0  0  0  0  0  0  0  0  0  0
   31.7670   36.7927   65.4632 C   0  0  0  0  0  0  0  0  0  0  0  0
   31.9702   37.9551   66.4652 C   0  0  0  0  0  0  0  0  0  0  0  0
   31.6511   39.2204   65.6455 C   0  0  0  0  0  0  0  0  0  0  0  0
   31.2599   38.7936   64.3298 O   0  0  0  0  0  0  0  0  0  0  0  0
   32.4573   35.6292   58.2222 C   0  0  0  0  0  0  0  0  0  0  0  0
   33.0492   35.0549   57.1142 C   0  0  0  0  0  0  0  0  0  0  0  0
   32.5432   34.1715   54.3721 H   0  0  0  0  0  0  0  0  0  0  0  0
   34.0522   33.4795   53.7302 H   0  0  0  0  0  0  0  0  0  0  0  0
   33.6203   33.2404   55.4403 H   0  0  0  0  0  0  0  0  0  0  0  0
   35.3670   34.9838   55.1988 H   0  0  0  0  0  0  0  0  0  0  0  0
   34.7445   35.7397   52.9207 H   0  0  0  0  0  0  0  0  0  0  0  0
   33.2354   36.4316   53.5627 H   0  0  0  0  0  0  0  0  0  0  0  0
   34.8057   37.1107   54.0542 H   0  0  0  0  0  0  0  0  0  0  0  0
   34.2056   37.8415   55.6020 H   0  0  0  0  0  0  0  0  0  0  0  0
   33.1460   38.8761   57.5678 H   0  0  0  0  0  0  0  0  0  0  0  0
   31.5137   38.4887   59.4445 H   0  0  0  0  0  0  0  0  0  0  0  0
   30.8629   38.3722   61.6833 H   0  0  0  0  0  0  0  0  0  0  0  0
   31.6180   35.7582   62.8820 H   0  0  0  0  0  0  0  0  0  0  0  0
   30.1113   36.6124   63.2921 H   0  0  0  0  0  0  0  0  0  0  0  0
   32.5462   36.0393   65.5783 H   0  0  0  0  0  0  0  0  0  0  0  0
   30.7785   36.3480   65.5784 H   0  0  0  0  0  0  0  0  0  0  0  0
   33.0013   37.9791   66.8179 H   0  0  0  0  0  0  0  0  0  0  0  0
   31.2824   37.8616   67.3056 H   0  0  0  0  0  0  0  0  0  0  0  0
   30.8351   39.7701   66.1148 H   0  0  0  0  0  0  0  0  0  0  0  0
   32.5360   39.8537   65.5819 H   0  0  0  0  0  0  0  0  0  0  0  0
   31.9699   35.0071   58.9582 H   0  0  0  0  0  0  0  0  0  0  0  0
   33.0244   33.9831   56.9842 H   0  0  0  0  0  0  0  0  0  0  0  0
  1  2  1  0  0  0  0
  1 21  1  0  0  0  0
  1 22  1  0  0  0  0
  1 23  1  0  0  0  0
  2  3  1  0  0  0  0
  2  4  1  0  0  0  0
  2 24  1  0  0  0  0
  3 25  1  0  0  0  0
  3 26  1  0  0  0  0
  3 27  1  0  0  0  0
  4 20  2  0  0  0  0
  4  5  1  0  0  0  0
  5  6  2  0  0  0  0
  5 28  1  0  0  0  0
  6  7  1  0  0  0  0
  6 29  1  0  0  0  0
  7  8  1  0  0  0  0
  7 19  2  0  0  0  0
  8  9  1  0  0  0  0
  8 30  1  0  0  0  0
  9 10  2  0  0  0  0
  9 11  1  0  0  0  0
 11 12  1  0  0  0  0
 11 31  1  0  0  0  0
 12 13  1  0  0  0  0
 12 32  1  0  0  0  0
 12 33  1  0  0  0  0
 13 14  1  6  0  0  0
 13 18  1  0  0  0  0
 13 15  1  0  0  0  0
 15 16  1  0  0  0  0
 15 34  1  0  0  0  0
 15 35  1  0  0  0  0
 16 17  1  0  0  0  0
 16 36  1  0  0  0  0
 16 37  1  0  0  0  0
 17 18  1  0  0  0  0
 17 38  1  0  0  0  0
 17 39  1  0  0  0  0
 19 20  1  0  0  0  0
 19 40  1  0  0  0  0
 20 41  1  0  0  0  0
M  END
$$$$
