ZINC000000031465      none
 OpenBabel11202420163D

 29 30  0  0  0  0  0  0  0  0999 V2000
   33.8175   38.1040   55.2424 O   0  0  0  0  0  0  0  0  0  0  0  0
   34.1625   36.9417   55.2769 C   0  0  0  0  0  0  0  0  0  0  0  0
   34.9461   36.3539   54.1318 C   0  0  0  0  0  0  0  0  0  0  0  0
   34.0202   34.9694   53.4131 S   0  0  0  0  0  0  0  0  0  0  0  0
   34.5925   33.5854   54.3412 C   0  0  0  0  0  0  0  0  0  0  0  0
   34.6321   32.3263   53.7490 C   0  0  0  0  0  0  0  0  0  0  0  0
   35.0836   31.2491   54.4891 C   0  0  0  0  0  0  0  0  0  0  0  0
   35.4821   31.4670   55.8019 C   0  0  0  0  0  0  0  0  0  0  0  0
   35.4116   32.7413   56.3276 C   0  0  0  0  0  0  0  0  0  0  0  0
   34.9819   33.7523   55.5963 N   0  0  0  0  0  0  0  0  0  0  0  0
   33.8449   36.1759   56.3396 N   0  0  0  0  0  0  0  0  0  0  0  0
   33.1169   36.7217   57.4031 C   0  0  0  0  0  0  0  0  0  0  0  0
   33.2344   38.0717   57.7063 C   0  0  0  0  0  0  0  0  0  0  0  0
   32.5148   38.6073   58.7565 C   0  0  0  0  0  0  0  0  0  0  0  0
   31.6783   37.8010   59.5065 C   0  0  0  0  0  0  0  0  0  0  0  0
   31.5590   36.4563   59.2080 C   0  0  0  0  0  0  0  0  0  0  0  0
   32.2711   35.9151   58.1542 C   0  0  0  0  0  0  0  0  0  0  0  0
   32.1013   34.0776   57.7411 Br  0  0  0  0  0  0  0  0  0  0  0  0
   35.9093   35.9967   54.4961 H   0  0  0  0  0  0  0  0  0  0  0  0
   35.1060   37.1179   53.3711 H   0  0  0  0  0  0  0  0  0  0  0  0
   34.3143   32.1925   52.7256 H   0  0  0  0  0  0  0  0  0  0  0  0
   35.1257   30.2607   54.0562 H   0  0  0  0  0  0  0  0  0  0  0  0
   35.8393   30.6466   56.4067 H   0  0  0  0  0  0  0  0  0  0  0  0
   35.7164   32.9141   57.3491 H   0  0  0  0  0  0  0  0  0  0  0  0
   34.1208   35.2463   56.3672 H   0  0  0  0  0  0  0  0  0  0  0  0
   33.8880   38.7021   57.1217 H   0  0  0  0  0  0  0  0  0  0  0  0
   32.6059   39.6573   58.9926 H   0  0  0  0  0  0  0  0  0  0  0  0
   31.1171   38.2225   60.3273 H   0  0  0  0  0  0  0  0  0  0  0  0
   30.9049   35.8291   59.7955 H   0  0  0  0  0  0  0  0  0  0  0  0
  1  2  2  0  0  0  0
  2  3  1  0  0  0  0
  2 11  1  0  0  0  0
  3  4  1  0  0  0  0
  3 19  1  0  0  0  0
  3 20  1  0  0  0  0
  4  5  1  0  0  0  0
  5 10  2  0  0  0  0
  5  6  1  0  0  0  0
  6  7  2  0  0  0  0
  6 21  1  0  0  0  0
  7  8  1  0  0  0  0
  7 22  1  0  0  0  0
  8  9  2  0  0  0  0
  8 23  1  0  0  0  0
  9 10  1  0  0  0  0
  9 24  1  0  0  0  0
 11 12  1  0  0  0  0
 11 25  1  0  0  0  0
 12 17  2  0  0  0  0
 12 13  1  0  0  0  0
 13 14  2  0  0  0  0
 13 26  1  0  0  0  0
 14 15  1  0  0  0  0
 14 27  1  0  0  0  0
 15 16  2  0  0  0  0
 15 28  1  0  0  0  0
 16 17  1  0  0  0  0
 16 29  1  0  0  0  0
 17 18  1  0  0  0  0
M  END
$$$$
