ZINC000000046665      none
 OpenBabel11202420153D

 34 35  0  0  1  0  0  0  0  0999 V2000
   32.3188   38.3202   58.2861 C   0  0  0  0  0  0  0  0  0  0  0  0
   31.7567   37.8772   59.6124 C   0  0  0  0  0  0  0  0  0  0  0  0
   30.4080   37.5959   59.7308 C   0  0  0  0  0  0  0  0  0  0  0  0
   29.8898   37.1893   60.9446 C   0  0  0  0  0  0  0  0  0  0  0  0
   30.7250   37.0632   62.0474 C   0  0  0  0  0  0  0  0  0  0  0  0
   30.2041   36.6526   63.2766 N   0  0  0  0  0  0  0  0  0  0  0  0
   31.0864   36.5202   64.4386 C   0  0  1  0  0  0  0  0  0  0  0  0
   32.0351   36.0834   64.1266 H   0  0  0  0  0  0  0  0  0  0  0  0
   31.3259   37.8420   65.0231 N   0  0  0  0  0  0  0  0  0  0  0  0
   32.4887   38.0990   65.6543 C   0  0  0  0  0  0  0  0  0  0  0  0
   33.3396   37.2330   65.7388 O   0  0  0  0  0  0  0  0  0  0  0  0
   32.7310   39.4241   66.2343 C   0  0  0  0  0  0  0  0  0  0  0  0
   31.8707   40.4839   66.2012 C   0  0  0  0  0  0  0  0  0  0  0  0
   32.5053   41.5398   66.8738 C   0  0  0  0  0  0  0  0  0  0  0  0
   33.7130   41.0863   67.2761 C   0  0  0  0  0  0  0  0  0  0  0  0
   33.8454   39.8112   66.8888 O   0  0  0  0  0  0  0  0  0  0  0  0
   30.4259   35.6142   65.4798 C   0  0  0  0  0  0  0  0  0  0  0  0
   30.1310   33.9874   64.7605 Cl  0  0  0  0  0  0  0  0  0  0  0  0
   31.5118   35.4510   66.9098 Cl  0  0  0  0  0  0  0  0  0  0  0  0
   28.8566   36.3364   65.9960 Cl  0  0  0  0  0  0  0  0  0  0  0  0
   32.0784   37.3516   61.9263 C   0  0  0  0  0  0  0  0  0  0  0  0
   32.5910   37.7527   60.7082 C   0  0  0  0  0  0  0  0  0  0  0  0
   32.2718   39.4069   58.2162 H   0  0  0  0  0  0  0  0  0  0  0  0
   33.3560   37.9953   58.2044 H   0  0  0  0  0  0  0  0  0  0  0  0
   31.7350   37.8785   57.4784 H   0  0  0  0  0  0  0  0  0  0  0  0
   29.7591   37.6945   58.8730 H   0  0  0  0  0  0  0  0  0  0  0  0
   28.8364   36.9694   61.0362 H   0  0  0  0  0  0  0  0  0  0  0  0
   29.2582   36.4552   63.3609 H   0  0  0  0  0  0  0  0  0  0  0  0
   30.6477   38.5322   64.9558 H   0  0  0  0  0  0  0  0  0  0  0  0
   30.8910   40.5049   65.7473 H   0  0  0  0  0  0  0  0  0  0  0  0
   32.1049   42.5296   67.0364 H   0  0  0  0  0  0  0  0  0  0  0  0
   34.4504   41.6583   67.8196 H   0  0  0  0  0  0  0  0  0  0  0  0
   32.7297   37.2588   62.7828 H   0  0  0  0  0  0  0  0  0  0  0  0
   33.6439   37.9732   60.6124 H   0  0  0  0  0  0  0  0  0  0  0  0
  1  2  1  0  0  0  0
  1 23  1  0  0  0  0
  1 24  1  0  0  0  0
  1 25  1  0  0  0  0
  2 22  2  0  0  0  0
  2  3  1  0  0  0  0
  3  4  2  0  0  0  0
  3 26  1  0  0  0  0
  4  5  1  0  0  0  0
  4 27  1  0  0  0  0
  5  6  1  0  0  0  0
  5 21  2  0  0  0  0
  6  7  1  0  0  0  0
  6 28  1  0  0  0  0
  7  8  1  6  0  0  0
  7  9  1  0  0  0  0
  7 17  1  0  0  0  0
  9 10  1  0  0  0  0
  9 29  1  0  0  0  0
 10 11  2  0  0  0  0
 10 12  1  0  0  0  0
 12 16  1  0  0  0  0
 12 13  2  0  0  0  0
 13 14  1  0  0  0  0
 13 30  1  0  0  0  0
 14 15  2  0  0  0  0
 14 31  1  0  0  0  0
 15 16  1  0  0  0  0
 15 32  1  0  0  0  0
 17 18  1  0  0  0  0
 17 19  1  0  0  0  0
 17 20  1  0  0  0  0
 21 22  1  0  0  0  0
 21 33  1  0  0  0  0
 22 34  1  0  0  0  0
M  END
$$$$
