ZINC000000038199      none
 OpenBabel11202420153D

 28 29  0  0  1  0  0  0  0  0999 V2000
   33.1829   39.9372   57.9625 C   0  0  0  0  0  0  0  0  0  0  0  0
   33.2461   38.5272   57.4344 C   0  0  0  0  0  0  0  0  0  0  0  0
   32.8939   37.4682   58.2509 C   0  0  0  0  0  0  0  0  0  0  0  0
   32.9453   36.1753   57.7683 C   0  0  0  0  0  0  0  0  0  0  0  0
   33.3621   35.9384   56.4646 C   0  0  0  0  0  0  0  0  0  0  0  0
   33.4203   34.6315   55.9749 N   0  0  0  0  0  0  0  0  0  0  0  0
   34.4051   34.2764   54.9502 C   0  0  1  0  0  0  0  0  0  0  0  0
   35.2377   33.0917   55.3983 C   0  0  0  0  0  0  0  0  0  0  0  0
   35.9640   33.0318   56.3672 O   0  0  0  0  0  0  0  0  0  0  0  0
   35.0018   32.1184   54.4965 N   0  0  0  0  0  0  0  0  0  0  0  0
   34.1448   32.5195   53.5504 C   0  0  0  0  0  0  0  0  0  0  0  0
   33.7789   31.8170   52.6287 O   0  0  0  0  0  0  0  0  0  0  0  0
   33.7338   33.7873   53.7335 N   0  0  0  0  0  0  0  0  0  0  0  0
   32.8634   34.4849   52.9451 N   0  0  0  0  0  0  0  0  0  0  0  0
   33.7205   37.0039   55.6488 C   0  0  0  0  0  0  0  0  0  0  0  0
   33.6614   38.2948   56.1360 C   0  0  0  0  0  0  0  0  0  0  0  0
   32.1958   40.3553   57.7649 H   0  0  0  0  0  0  0  0  0  0  0  0
   33.3665   39.9313   59.0369 H   0  0  0  0  0  0  0  0  0  0  0  0
   33.9405   40.5448   57.4677 H   0  0  0  0  0  0  0  0  0  0  0  0
   32.5746   37.6528   59.2660 H   0  0  0  0  0  0  0  0  0  0  0  0
   32.6659   35.3490   58.4052 H   0  0  0  0  0  0  0  0  0  0  0  0
   32.8086   33.9591   56.3133 H   0  0  0  0  0  0  0  0  0  0  0  0
   35.0439   35.1295   54.7218 H   0  0  0  0  0  0  0  0  0  0  0  0
   35.4033   31.2360   54.5294 H   0  0  0  0  0  0  0  0  0  0  0  0
   32.5449   33.9211   52.1713 H   0  0  0  0  0  0  0  0  0  0  0  0
   32.0844   34.8312   53.4850 H   0  0  0  0  0  0  0  0  0  0  0  0
   34.0448   36.8232   54.6346 H   0  0  0  0  0  0  0  0  0  0  0  0
   33.9403   39.1238   55.5024 H   0  0  0  0  0  0  0  0  0  0  0  0
  1  2  1  0  0  0  0
  1 17  1  0  0  0  0
  1 18  1  0  0  0  0
  1 19  1  0  0  0  0
  2 16  2  0  0  0  0
  2  3  1  0  0  0  0
  3  4  2  0  0  0  0
  3 20  1  0  0  0  0
  4  5  1  0  0  0  0
  4 21  1  0  0  0  0
  5  6  1  0  0  0  0
  5 15  2  0  0  0  0
  6  7  1  0  0  0  0
  6 22  1  0  0  0  0
  7 13  1  0  0  0  0
  7  8  1  0  0  0  0
  7 23  1  6  0  0  0
  8  9  2  0  0  0  0
  8 10  1  0  0  0  0
 10 11  1  0  0  0  0
 10 24  1  0  0  0  0
 11 12  2  0  0  0  0
 11 13  1  0  0  0  0
 13 14  1  0  0  0  0
 14 25  1  0  0  0  0
 14 26  1  0  0  0  0
 15 16  1  0  0  0  0
 15 27  1  0  0  0  0
 16 28  1  0  0  0  0
M  END
$$$$
