ZINC000000054605      none
 OpenBabel11202420153D

 50 51  0  0  1  0  0  0  0  0999 V2000
   26.5838   31.6930   64.1705 C   0  0  0  0  0  0  0  0  0  0  0  0
   27.1453   32.7191   65.0306 O   0  0  0  0  0  0  0  0  0  0  0  0
   28.4591   32.6413   65.2944 C   0  0  0  0  0  0  0  0  0  0  0  0
   29.1181   31.7453   64.8222 O   0  0  0  0  0  0  0  0  0  0  0  0
   29.1124   33.6715   66.1794 C   0  0  2  0  0  0  0  0  0  0  0  0
   30.1741   33.4453   66.2774 H   0  0  0  0  0  0  0  0  0  0  0  0
   28.4559   33.6466   67.5612 C   0  0  0  0  0  0  0  0  0  0  0  0
   29.1191   34.6926   68.4597 C   0  0  0  0  0  0  0  0  0  0  0  0
   28.4627   34.6678   69.8415 C   0  0  0  0  0  0  0  0  0  0  0  0
   30.6095   34.3752   68.5973 C   0  0  0  0  0  0  0  0  0  0  0  0
   28.9489   35.0003   65.5848 N   0  0  0  0  0  0  0  0  0  0  0  0
   29.8766   35.4748   64.7300 C   0  0  0  0  0  0  0  0  0  0  0  0
   30.8466   34.8017   64.4531 O   0  0  0  0  0  0  0  0  0  0  0  0
   29.7083   36.8419   64.1184 C   0  0  0  0  0  0  0  0  0  0  0  0
   30.3618   37.8720   65.0033 C   0  0  0  0  0  0  0  0  0  0  0  0
   29.8688   39.1629   65.0415 C   0  0  0  0  0  0  0  0  0  0  0  0
   30.4652   40.1065   65.8568 C   0  0  0  0  0  0  0  0  0  0  0  0
   31.5609   39.7620   66.6260 C   0  0  0  0  0  0  0  0  0  0  0  0
   32.0570   38.4724   66.5838 C   0  0  0  0  0  0  0  0  0  0  0  0
   31.4574   37.5274   65.7725 C   0  0  0  0  0  0  0  0  0  0  0  0
   30.3547   36.8662   62.7573 C   0  0  0  0  0  0  0  0  0  0  0  0
   31.6817   37.2318   62.6287 C   0  0  0  0  0  0  0  0  0  0  0  0
   32.2759   37.2494   61.3807 C   0  0  0  0  0  0  0  0  0  0  0  0
   31.5405   36.9115   60.2601 C   0  0  0  0  0  0  0  0  0  0  0  0
   30.2121   36.5509   60.3881 C   0  0  0  0  0  0  0  0  0  0  0  0
   29.6193   36.5283   61.6367 C   0  0  0  0  0  0  0  0  0  0  0  0
   26.7334   30.7145   64.6269 H   0  0  0  0  0  0  0  0  0  0  0  0
   25.5169   31.8731   64.0388 H   0  0  0  0  0  0  0  0  0  0  0  0
   27.0795   31.7209   63.2001 H   0  0  0  0  0  0  0  0  0  0  0  0
   27.3941   33.8727   67.4632 H   0  0  0  0  0  0  0  0  0  0  0  0
   28.5776   32.6579   68.0036 H   0  0  0  0  0  0  0  0  0  0  0  0
   28.9975   35.6812   68.0173 H   0  0  0  0  0  0  0  0  0  0  0  0
   28.5843   33.6791   70.2839 H   0  0  0  0  0  0  0  0  0  0  0  0
   28.9351   35.4129   70.4816 H   0  0  0  0  0  0  0  0  0  0  0  0
   27.4009   34.8937   69.7434 H   0  0  0  0  0  0  0  0  0  0  0  0
   31.0772   34.3929   67.6129 H   0  0  0  0  0  0  0  0  0  0  0  0
   31.0819   35.1203   69.2374 H   0  0  0  0  0  0  0  0  0  0  0  0
   30.7311   33.3865   69.0397 H   0  0  0  0  0  0  0  0  0  0  0  0
   28.1730   35.5387   65.8064 H   0  0  0  0  0  0  0  0  0  0  0  0
   28.6466   37.0679   64.0204 H   0  0  0  0  0  0  0  0  0  0  0  0
   29.0156   39.4332   64.4372 H   0  0  0  0  0  0  0  0  0  0  0  0
   30.0779   41.1142   65.8895 H   0  0  0  0  0  0  0  0  0  0  0  0
   32.0295   40.5004   67.2596 H   0  0  0  0  0  0  0  0  0  0  0  0
   32.9134   38.2033   67.1845 H   0  0  0  0  0  0  0  0  0  0  0  0
   31.8452   36.5199   65.7392 H   0  0  0  0  0  0  0  0  0  0  0  0
   32.2551   37.5000   63.5037 H   0  0  0  0  0  0  0  0  0  0  0  0
   33.3137   37.5315   61.2808 H   0  0  0  0  0  0  0  0  0  0  0  0
   32.0035   36.9296   59.2846 H   0  0  0  0  0  0  0  0  0  0  0  0
   29.6373   36.2873   59.5125 H   0  0  0  0  0  0  0  0  0  0  0  0
   28.5813   36.2469   61.7366 H   0  0  0  0  0  0  0  0  0  0  0  0
  1  2  1  0  0  0  0
  1 27  1  0  0  0  0
  1 28  1  0  0  0  0
  1 29  1  0  0  0  0
  2  3  1  0  0  0  0
  3  4  2  0  0  0  0
  3  5  1  0  0  0  0
  5  6  1  1  0  0  0
  5  7  1  0  0  0  0
  5 11  1  0  0  0  0
  7  8  1  0  0  0  0
  7 30  1  0  0  0  0
  7 31  1  0  0  0  0
  8  9  1  0  0  0  0
  8 10  1  0  0  0  0
  8 32  1  0  0  0  0
  9 33  1  0  0  0  0
  9 34  1  0  0  0  0
  9 35  1  0  0  0  0
 10 36  1  0  0  0  0
 10 37  1  0  0  0  0
 10 38  1  0  0  0  0
 11 12  1  0  0  0  0
 11 39  1  0  0  0  0
 12 13  2  0  0  0  0
 12 14  1  0  0  0  0
 14 15  1  0  0  0  0
 14 21  1  0  0  0  0
 14 40  1  0  0  0  0
 15 20  2  0  0  0  0
 15 16  1  0  0  0  0
 16 17  2  0  0  0  0
 16 41  1  0  0  0  0
 17 18  1  0  0  0  0
 17 42  1  0  0  0  0
 18 19  2  0  0  0  0
 18 43  1  0  0  0  0
 19 20  1  0  0  0  0
 19 44  1  0  0  0  0
 20 45  1  0  0  0  0
 21 26  2  0  0  0  0
 21 22  1  0  0  0  0
 22 23  2  0  0  0  0
 22 46  1  0  0  0  0
 23 24  1  0  0  0  0
 23 47  1  0  0  0  0
 24 25  2  0  0  0  0
 24 48  1  0  0  0  0
 25 26  1  0  0  0  0
 25 49  1  0  0  0  0
 26 50  1  0  0  0  0
M  END
$$$$
