ZINC000000005291      none
 OpenBabel11202420153D

 26 28  0  0  0  0  0  0  0  0999 V2000
   30.1726   36.0846   60.9316 O   0  0  0  0  0  0  0  0  0  0  0  0
   30.8508   35.6276   60.0289 C   0  0  0  0  0  0  0  0  0  0  0  0
   30.8706   34.3001   59.7916 N   0  0  0  0  0  0  0  0  0  0  0  0
   30.3364   33.7134   60.3497 H   0  0  0  0  0  0  0  0  0  0  0  0
   31.6373   33.7468   58.7657 N   0  0  0  0  0  0  0  0  0  0  0  0
   32.3816   34.4746   57.9730 C   0  0  0  0  0  0  0  0  0  0  0  0
   33.1752   33.8300   56.9003 C   0  0  0  0  0  0  0  0  0  0  0  0
   32.6265   33.6371   55.6283 C   0  0  0  0  0  0  0  0  0  0  0  0
   33.4109   33.0355   54.6599 C   0  0  0  0  0  0  0  0  0  0  0  0
   34.6961   32.6371   54.9810 C   0  0  0  0  0  0  0  0  0  0  0  0
   35.1848   32.8273   56.1912 N   0  0  0  0  0  0  0  0  0  0  0  0
   34.4789   33.4008   57.1441 C   0  0  0  0  0  0  0  0  0  0  0  0
   32.4289   35.9332   58.1492 C   0  0  0  0  0  0  0  0  0  0  0  0
   33.2076   36.7473   57.3280 C   0  0  0  0  0  0  0  0  0  0  0  0
   33.2186   38.1093   57.5339 C   0  0  0  0  0  0  0  0  0  0  0  0
   32.4626   38.6794   58.5501 C   0  0  0  0  0  0  0  0  0  0  0  0
   31.6857   37.8943   59.3730 C   0  0  0  0  0  0  0  0  0  0  0  0
   31.6601   36.5134   59.1819 C   0  0  0  0  0  0  0  0  0  0  0  0
   31.6180   33.9533   55.4064 H   0  0  0  0  0  0  0  0  0  0  0  0
   33.0221   32.8741   53.6653 H   0  0  0  0  0  0  0  0  0  0  0  0
   35.3089   32.1626   54.2291 H   0  0  0  0  0  0  0  0  0  0  0  0
   34.9138   33.5392   58.1230 H   0  0  0  0  0  0  0  0  0  0  0  0
   33.7990   36.3129   56.5355 H   0  0  0  0  0  0  0  0  0  0  0  0
   33.8213   38.7407   56.8980 H   0  0  0  0  0  0  0  0  0  0  0  0
   32.4840   39.7492   58.6963 H   0  0  0  0  0  0  0  0  0  0  0  0
   31.1006   38.3451   60.1610 H   0  0  0  0  0  0  0  0  0  0  0  0
  1  2  2  0  0  0  0
  2 18  1  0  0  0  0
  2  3  1  0  0  0  0
  3  4  1  0  0  0  0
  3  5  1  0  0  0  0
  5  6  2  0  0  0  0
  6  7  1  0  0  0  0
  6 13  1  0  0  0  0
  7 12  2  0  0  0  0
  7  8  1  0  0  0  0
  8  9  2  0  0  0  0
  8 19  1  0  0  0  0
  9 10  1  0  0  0  0
  9 20  1  0  0  0  0
 10 11  2  0  0  0  0
 10 21  1  0  0  0  0
 11 12  1  0  0  0  0
 12 22  1  0  0  0  0
 13 18  2  0  0  0  0
 13 14  1  0  0  0  0
 14 15  2  0  0  0  0
 14 23  1  0  0  0  0
 15 16  1  0  0  0  0
 15 24  1  0  0  0  0
 16 17  2  0  0  0  0
 16 25  1  0  0  0  0
 17 18  1  0  0  0  0
 17 26  1  0  0  0  0
M  END
$$$$
