ZINC000000002561      none
 OpenBabel11202420153D

 33 34  0  0  0  0  0  0  0  0999 V2000
   30.1705   37.1225   65.7091 C   0  0  0  0  0  0  0  0  0  0  0  0
   30.4157   37.9257   64.4301 C   0  0  0  0  0  0  0  0  0  0  0  0
   30.1298   39.4033   64.7050 C   0  0  0  0  0  0  0  0  0  0  0  0
   31.8511   37.7704   64.0191 C   0  0  0  0  0  0  0  0  0  0  0  0
   32.1948   37.5656   62.7671 C   0  0  0  0  0  0  0  0  0  0  0  0
   31.2242   37.4787   61.7723 N   0  0  0  0  0  0  0  0  0  0  0  0
   31.5660   37.6295   60.4774 C   0  0  0  0  0  0  0  0  0  0  0  0
   30.9357   37.0543   59.6113 O   0  0  0  0  0  0  0  0  0  0  0  0
   32.6064   38.4182   60.1425 N   0  0  0  0  0  0  0  0  0  0  0  0
   32.9612   38.5749   58.7981 C   0  0  0  0  0  0  0  0  0  0  0  0
   33.5370   39.7618   58.3643 C   0  0  0  0  0  0  0  0  0  0  0  0
   33.8906   39.9116   57.0376 C   0  0  0  0  0  0  0  0  0  0  0  0
   33.6625   38.8850   56.1396 C   0  0  0  0  0  0  0  0  0  0  0  0
   33.0845   37.7039   56.5674 C   0  0  0  0  0  0  0  0  0  0  0  0
   32.7330   37.5460   57.8937 C   0  0  0  0  0  0  0  0  0  0  0  0
   29.8976   37.2409   62.1228 C   0  0  0  0  0  0  0  0  0  0  0  0
   29.4877   37.4364   63.3564 C   0  0  0  0  0  0  0  0  0  0  0  0
   30.8206   37.4936   66.5014 H   0  0  0  0  0  0  0  0  0  0  0  0
   29.1292   37.2315   66.0126 H   0  0  0  0  0  0  0  0  0  0  0  0
   30.3869   36.0703   65.5245 H   0  0  0  0  0  0  0  0  0  0  0  0
   30.3170   39.9838   63.8016 H   0  0  0  0  0  0  0  0  0  0  0  0
   29.0884   39.5225   65.0040 H   0  0  0  0  0  0  0  0  0  0  0  0
   30.7803   39.7566   65.5051 H   0  0  0  0  0  0  0  0  0  0  0  0
   32.6223   37.8281   64.7729 H   0  0  0  0  0  0  0  0  0  0  0  0
   33.2383   37.4643   62.5076 H   0  0  0  0  0  0  0  0  0  0  0  0
   33.1091   38.8770   60.8335 H   0  0  0  0  0  0  0  0  0  0  0  0
   33.7114   40.5656   59.0642 H   0  0  0  0  0  0  0  0  0  0  0  0
   34.3422   40.8328   56.7004 H   0  0  0  0  0  0  0  0  0  0  0  0
   33.9361   39.0061   55.1019 H   0  0  0  0  0  0  0  0  0  0  0  0
   32.9073   36.9040   55.8636 H   0  0  0  0  0  0  0  0  0  0  0  0
   32.2810   36.6236   58.2270 H   0  0  0  0  0  0  0  0  0  0  0  0
   29.1998   36.8936   61.3752 H   0  0  0  0  0  0  0  0  0  0  0  0
   28.4551   37.2396   63.6042 H   0  0  0  0  0  0  0  0  0  0  0  0
  1  2  1  0  0  0  0
  1 18  1  0  0  0  0
  1 19  1  0  0  0  0
  1 20  1  0  0  0  0
  2 17  1  0  0  0  0
  2  3  1  0  0  0  0
  2  4  1  0  0  0  0
  3 21  1  0  0  0  0
  3 22  1  0  0  0  0
  3 23  1  0  0  0  0
  4  5  2  0  0  0  0
  4 24  1  0  0  0  0
  5  6  1  0  0  0  0
  5 25  1  0  0  0  0
  6  7  1  0  0  0  0
  6 16  1  0  0  0  0
  7  8  2  0  0  0  0
  7  9  1  0  0  0  0
  9 10  1  0  0  0  0
  9 26  1  0  0  0  0
 10 15  2  0  0  0  0
 10 11  1  0  0  0  0
 11 12  2  0  0  0  0
 11 27  1  0  0  0  0
 12 13  1  0  0  0  0
 12 28  1  0  0  0  0
 13 14  2  0  0  0  0
 13 29  1  0  0  0  0
 14 15  1  0  0  0  0
 14 30  1  0  0  0  0
 15 31  1  0  0  0  0
 16 17  2  0  0  0  0
 16 32  1  0  0  0  0
 17 33  1  0  0  0  0
M  END
$$$$
