ZINC000000034420      none
 OpenBabel11202420153D

 29 29  0  0  1  0  0  0  0  0999 V2000
   33.5159   39.7624   57.5321 C   0  0  0  0  0  0  0  0  0  0  0  0
   33.4792   38.4242   56.8400 C   0  0  0  0  0  0  0  0  0  0  0  0
   33.8762   38.3045   55.5075 C   0  0  0  0  0  0  0  0  0  0  0  0
   33.8397   37.0960   54.8917 C   0  0  0  0  0  0  0  0  0  0  0  0
   34.2722   36.9861   53.4523 C   0  0  0  0  0  0  0  0  0  0  0  0
   33.4219   35.9858   55.5472 N   0  0  0  0  0  0  0  0  0  0  0  0
   33.3982   34.7003   54.8452 C   0  0  0  0  0  0  0  0  0  0  0  0
   34.7438   33.9951   55.0271 C   0  0  1  0  0  0  0  0  0  0  0  0
   35.5494   34.7260   54.9577 H   0  0  0  0  0  0  0  0  0  0  0  0
   34.7844   33.3203   56.3998 C   0  0  0  0  0  0  0  0  0  0  0  0
   34.9064   33.0084   54.0063 O   0  0  0  0  0  0  0  0  0  0  0  0
   33.0285   36.0457   56.8336 C   0  0  0  0  0  0  0  0  0  0  0  0
   32.6558   35.0364   57.4067 O   0  0  0  0  0  0  0  0  0  0  0  0
   33.0542   37.2868   57.5218 C   0  0  0  0  0  0  0  0  0  0  0  0
   32.6453   37.3689   58.8918 C   0  0  0  0  0  0  0  0  0  0  0  0
   32.3209   37.4339   59.9786 N   0  0  0  0  0  0  0  0  0  0  0  0
   32.5603   40.2686   57.3952 H   0  0  0  0  0  0  0  0  0  0  0  0
   34.3136   40.3704   57.1054 H   0  0  0  0  0  0  0  0  0  0  0  0
   33.7004   39.6161   58.5964 H   0  0  0  0  0  0  0  0  0  0  0  0
   34.2129   39.1756   54.9651 H   0  0  0  0  0  0  0  0  0  0  0  0
   34.5743   37.9678   53.0877 H   0  0  0  0  0  0  0  0  0  0  0  0
   35.1127   36.2961   53.3771 H   0  0  0  0  0  0  0  0  0  0  0  0
   33.4424   36.6147   52.8510 H   0  0  0  0  0  0  0  0  0  0  0  0
   32.6032   34.0772   55.2547 H   0  0  0  0  0  0  0  0  0  0  0  0
   33.2172   34.8692   53.7837 H   0  0  0  0  0  0  0  0  0  0  0  0
   35.7430   32.8179   56.5294 H   0  0  0  0  0  0  0  0  0  0  0  0
   34.6604   34.0729   57.1784 H   0  0  0  0  0  0  0  0  0  0  0  0
   33.9788   32.5894   56.4694 H   0  0  0  0  0  0  0  0  0  0  0  0
   34.8908   33.3657   53.1080 H   0  0  0  0  0  0  0  0  0  0  0  0
  1  2  1  0  0  0  0
  1 17  1  0  0  0  0
  1 18  1  0  0  0  0
  1 19  1  0  0  0  0
  2 14  2  0  0  0  0
  2  3  1  0  0  0  0
  3  4  2  0  0  0  0
  3 20  1  0  0  0  0
  4  5  1  0  0  0  0
  4  6  1  0  0  0  0
  5 21  1  0  0  0  0
  5 22  1  0  0  0  0
  5 23  1  0  0  0  0
  6  7  1  0  0  0  0
  6 12  1  0  0  0  0
  7  8  1  0  0  0  0
  7 24  1  0  0  0  0
  7 25  1  0  0  0  0
  8  9  1  6  0  0  0
  8 10  1  0  0  0  0
  8 11  1  0  0  0  0
 10 26  1  0  0  0  0
 10 27  1  0  0  0  0
 10 28  1  0  0  0  0
 11 29  1  0  0  0  0
 12 13  2  0  0  0  0
 12 14  1  0  0  0  0
 14 15  1  0  0  0  0
 15 16  3  0  0  0  0
M  END
$$$$
