ZINC000000022609      none
 OpenBabel11202420153D

 45 48  0  0  0  0  0  0  0  0999 V2000
   27.4262   41.6307   69.2710 C   0  0  0  0  0  0  0  0  0  0  0  0
   27.3191   40.7451   68.0278 C   0  0  0  0  0  0  0  0  0  0  0  0
   26.3187   41.3610   67.0477 C   0  0  0  0  0  0  0  0  0  0  0  0
   26.8412   39.3500   68.4352 C   0  0  0  0  0  0  0  0  0  0  0  0
   28.6697   40.6406   67.3676 C   0  0  0  0  0  0  0  0  0  0  0  0
   28.8156   39.8891   66.2225 C   0  0  0  0  0  0  0  0  0  0  0  0
   30.0608   39.7852   65.6055 C   0  0  0  0  0  0  0  0  0  0  0  0
   30.2192   38.9727   64.3742 C   0  0  0  0  0  0  0  0  0  0  0  0
   29.9753   37.6447   64.2601 C   0  0  0  0  0  0  0  0  0  0  0  0
   30.2474   37.2933   62.9452 N   0  0  0  0  0  0  0  0  0  0  0  0
   30.2286   36.1806   62.1378 C   0  0  0  0  0  0  0  0  0  0  0  0
   30.5995   36.3585   60.8951 C   0  0  0  0  0  0  0  0  0  0  0  0
   31.0259   38.0439   60.6354 S   0  0  0  0  0  0  0  0  0  0  0  0
   30.6539   38.4198   62.3171 C   0  0  0  0  0  0  0  0  0  0  0  0
   30.6358   39.4248   63.1770 N   0  0  0  0  0  0  0  0  0  0  0  0
   31.1571   40.4504   66.1543 C   0  0  0  0  0  0  0  0  0  0  0  0
   31.0016   41.2017   67.2952 C   0  0  0  0  0  0  0  0  0  0  0  0
   29.7634   41.3053   67.9190 C   0  0  0  0  0  0  0  0  0  0  0  0
   29.8383   42.0812   69.0357 O   0  0  0  0  0  0  0  0  0  0  0  0
   31.0263   42.8883   68.9739 C   0  0  0  0  0  0  0  0  0  0  0  0
   31.9783   42.0313   68.1066 C   0  0  0  0  0  0  0  0  0  0  0  0
   32.8330   42.9153   67.1960 C   0  0  0  0  0  0  0  0  0  0  0  0
   32.8602   41.1384   68.9816 C   0  0  0  0  0  0  0  0  0  0  0  0
   27.7667   42.6247   68.9808 H   0  0  0  0  0  0  0  0  0  0  0  0
   26.4493   41.7063   69.7485 H   0  0  0  0  0  0  0  0  0  0  0  0
   28.1390   41.1920   69.9692 H   0  0  0  0  0  0  0  0  0  0  0  0
   26.2424   40.7302   66.1620 H   0  0  0  0  0  0  0  0  0  0  0  0
   25.3418   41.4365   67.5253 H   0  0  0  0  0  0  0  0  0  0  0  0
   26.6592   42.3549   66.7575 H   0  0  0  0  0  0  0  0  0  0  0  0
   27.5540   38.9112   69.1334 H   0  0  0  0  0  0  0  0  0  0  0  0
   25.8643   39.4256   68.9126 H   0  0  0  0  0  0  0  0  0  0  0  0
   26.7649   38.7192   67.5496 H   0  0  0  0  0  0  0  0  0  0  0  0
   27.9629   39.3750   65.8040 H   0  0  0  0  0  0  0  0  0  0  0  0
   29.6317   36.9850   65.0433 H   0  0  0  0  0  0  0  0  0  0  0  0
   29.9244   35.2128   62.5084 H   0  0  0  0  0  0  0  0  0  0  0  0
   30.6378   35.5855   60.1420 H   0  0  0  0  0  0  0  0  0  0  0  0
   32.1265   40.3751   65.6840 H   0  0  0  0  0  0  0  0  0  0  0  0
   30.8194   43.8436   68.4914 H   0  0  0  0  0  0  0  0  0  0  0  0
   31.4425   43.0397   69.9698 H   0  0  0  0  0  0  0  0  0  0  0  0
   33.4490   43.5763   67.8055 H   0  0  0  0  0  0  0  0  0  0  0  0
   33.4751   42.2870   66.5785 H   0  0  0  0  0  0  0  0  0  0  0  0
   32.1837   43.5118   66.5552 H   0  0  0  0  0  0  0  0  0  0  0  0
   32.2300   40.4908   69.5914 H   0  0  0  0  0  0  0  0  0  0  0  0
   33.5021   40.5275   68.3470 H   0  0  0  0  0  0  0  0  0  0  0  0
   33.4769   41.7605   69.6304 H   0  0  0  0  0  0  0  0  0  0  0  0
  1  2  1  0  0  0  0
  1 24  1  0  0  0  0
  1 25  1  0  0  0  0
  1 26  1  0  0  0  0
  2  3  1  0  0  0  0
  2  4  1  0  0  0  0
  2  5  1  0  0  0  0
  3 27  1  0  0  0  0
  3 28  1  0  0  0  0
  3 29  1  0  0  0  0
  4 30  1  0  0  0  0
  4 31  1  0  0  0  0
  4 32  1  0  0  0  0
  5 18  2  0  0  0  0
  5  6  1  0  0  0  0
  6  7  2  0  0  0  0
  6 33  1  0  0  0  0
  7  8  1  0  0  0  0
  7 16  1  0  0  0  0
  8 15  1  0  0  0  0
  8  9  2  0  0  0  0
  9 10  1  0  0  0  0
  9 34  1  0  0  0  0
 10 14  1  0  0  0  0
 10 11  1  0  0  0  0
 11 12  2  0  0  0  0
 11 35  1  0  0  0  0
 12 13  1  0  0  0  0
 12 36  1  0  0  0  0
 13 14  1  0  0  0  0
 14 15  2  0  0  0  0
 16 17  2  0  0  0  0
 16 37  1  0  0  0  0
 17 21  1  0  0  0  0
 17 18  1  0  0  0  0
 18 19  1  0  0  0  0
 19 20  1  0  0  0  0
 20 21  1  0  0  0  0
 20 38  1  0  0  0  0
 20 39  1  0  0  0  0
 21 22  1  0  0  0  0
 21 23  1  0  0  0  0
 22 40  1  0  0  0  0
 22 41  1  0  0  0  0
 22 42  1  0  0  0  0
 23 43  1  0  0  0  0
 23 44  1  0  0  0  0
 23 45  1  0  0  0  0
M  END
$$$$
