ZINC000000034723      none
 OpenBabel11202420153D

 38 40  0  0  0  0  0  0  0  0999 V2000
   32.9321   36.5840   65.3886 N   0  0  0  0  0  0  0  0  0  0  0  0
   32.5749   36.8887   64.1252 C   0  0  0  0  0  0  0  0  0  0  0  0
   33.1921   36.4177   63.1879 O   0  0  0  0  0  0  0  0  0  0  0  0
   31.4430   37.7875   63.8802 C   0  0  0  0  0  0  0  0  0  0  0  0
   31.0252   38.1442   62.6311 C   0  0  0  0  0  0  0  0  0  0  0  0
   31.6085   37.7099   61.4525 N   0  0  0  0  0  0  0  0  0  0  0  0
   30.8798   37.0167   60.5554 C   0  0  0  0  0  0  0  0  0  0  0  0
   29.7090   36.7722   60.7810 O   0  0  0  0  0  0  0  0  0  0  0  0
   31.4964   36.5577   59.3100 C   0  0  0  0  0  0  0  0  0  0  0  0
   32.5034   37.2632   58.7561 C   0  0  0  0  0  0  0  0  0  0  0  0
   33.1235   36.8015   57.5036 C   0  0  0  0  0  0  0  0  0  0  0  0
   32.9902   35.4682   57.1032 C   0  0  0  0  0  0  0  0  0  0  0  0
   33.5737   35.0434   55.9282 C   0  0  0  0  0  0  0  0  0  0  0  0
   34.2896   35.9327   55.1459 C   0  0  0  0  0  0  0  0  0  0  0  0
   34.4261   37.2537   55.5355 C   0  0  0  0  0  0  0  0  0  0  0  0
   33.8485   37.6938   56.7077 C   0  0  0  0  0  0  0  0  0  0  0  0
   29.6859   39.1891   62.7183 S   0  0  0  0  0  0  0  0  0  0  0  0
   29.6754   39.1651   64.4815 C   0  0  0  0  0  0  0  0  0  0  0  0
   30.6528   38.3932   64.9482 C   0  0  0  0  0  0  0  0  0  0  0  0
   30.6330   38.3816   66.4741 C   0  0  0  0  0  0  0  0  0  0  0  0
   29.2328   38.9012   66.8568 C   0  0  0  0  0  0  0  0  0  0  0  0
   28.8775   39.7674   65.6317 C   0  0  0  0  0  0  0  0  0  0  0  0
   32.4403   36.9593   66.1356 H   0  0  0  0  0  0  0  0  0  0  0  0
   33.6811   35.9893   65.5508 H   0  0  0  0  0  0  0  0  0  0  0  0
   32.5416   37.9048   61.2727 H   0  0  0  0  0  0  0  0  0  0  0  0
   31.1448   35.6540   58.8346 H   0  0  0  0  0  0  0  0  0  0  0  0
   32.8549   38.1670   59.2316 H   0  0  0  0  0  0  0  0  0  0  0  0
   32.4315   34.7732   57.7125 H   0  0  0  0  0  0  0  0  0  0  0  0
   33.4754   34.0129   55.6199 H   0  0  0  0  0  0  0  0  0  0  0  0
   34.7443   35.5940   54.2267 H   0  0  0  0  0  0  0  0  0  0  0  0
   34.9860   37.9418   54.9194 H   0  0  0  0  0  0  0  0  0  0  0  0
   33.9556   38.7250   57.0100 H   0  0  0  0  0  0  0  0  0  0  0  0
   30.7761   37.3675   66.8474 H   0  0  0  0  0  0  0  0  0  0  0  0
   31.4051   39.0422   66.8684 H   0  0  0  0  0  0  0  0  0  0  0  0
   28.5279   38.0774   66.9702 H   0  0  0  0  0  0  0  0  0  0  0  0
   29.2743   39.5044   67.7636 H   0  0  0  0  0  0  0  0  0  0  0  0
   29.1763   40.8022   65.7994 H   0  0  0  0  0  0  0  0  0  0  0  0
   27.8092   39.7095   65.4232 H   0  0  0  0  0  0  0  0  0  0  0  0
  1  2  1  0  0  0  0
  1 23  1  0  0  0  0
  1 24  1  0  0  0  0
  2  3  2  0  0  0  0
  2  4  1  0  0  0  0
  4 19  1  0  0  0  0
  4  5  2  0  0  0  0
  5  6  1  0  0  0  0
  5 17  1  0  0  0  0
  6  7  1  0  0  0  0
  6 25  1  0  0  0  0
  7  8  2  0  0  0  0
  7  9  1  0  0  0  0
  9 10  2  0  0  0  0
  9 26  1  0  0  0  0
 10 11  1  0  0  0  0
 10 27  1  0  0  0  0
 11 16  2  0  0  0  0
 11 12  1  0  0  0  0
 12 13  2  0  0  0  0
 12 28  1  0  0  0  0
 13 14  1  0  0  0  0
 13 29  1  0  0  0  0
 14 15  2  0  0  0  0
 14 30  1  0  0  0  0
 15 16  1  0  0  0  0
 15 31  1  0  0  0  0
 16 32  1  0  0  0  0
 17 18  1  0  0  0  0
 18 22  1  0  0  0  0
 18 19  2  0  0  0  0
 19 20  1  0  0  0  0
 20 21  1  0  0  0  0
 20 33  1  0  0  0  0
 20 34  1  0  0  0  0
 21 22  1  0  0  0  0
 21 35  1  0  0  0  0
 21 36  1  0  0  0  0
 22 37  1  0  0  0  0
 22 38  1  0  0  0  0
M  END
$$$$
