ZINC000000004572      none
 OpenBabel11202420153D

 23 24  0  0  1  0  0  0  0  0999 V2000
   31.3043   33.2361   61.5259 N   0  0  0  0  0  0  0  0  0  0  0  0
   32.0350   34.0956   60.5850 C   0  0  2  0  0  0  0  0  0  0  0  0
   33.1076   33.9999   60.7535 H   0  0  0  0  0  0  0  0  0  0  0  0
   31.6087   35.5495   60.7735 C   0  0  0  0  0  0  0  0  0  0  0  0
   32.0877   36.4134   59.6377 C   0  0  0  0  0  0  0  0  0  0  0  0
   32.1651   37.7827   59.8756 C   0  0  0  0  0  0  0  0  0  0  0  0
   32.5833   38.6475   58.8873 C   0  0  0  0  0  0  0  0  0  0  0  0
   32.9296   38.1531   57.6433 C   0  0  0  0  0  0  0  0  0  0  0  0
   32.8585   36.8005   57.4065 C   0  0  0  0  0  0  0  0  0  0  0  0
   32.4418   35.9259   58.4029 C   0  0  0  0  0  0  0  0  0  0  0  0
   32.4049   34.4568   58.0609 C   0  0  0  0  0  0  0  0  0  0  0  0
   31.6998   33.6998   59.1607 C   0  0  0  0  0  0  0  0  0  0  0  0
   30.9071   32.8220   58.9173 O   0  0  0  0  0  0  0  0  0  0  0  0
   31.5729   32.2697   61.4164 H   0  0  0  0  0  0  0  0  0  0  0  0
   31.4406   33.5437   62.4772 H   0  0  0  0  0  0  0  0  0  0  0  0
   30.5210   35.5984   60.8243 H   0  0  0  0  0  0  0  0  0  0  0  0
   32.0263   35.9251   61.7077 H   0  0  0  0  0  0  0  0  0  0  0  0
   31.8946   38.1719   60.8460 H   0  0  0  0  0  0  0  0  0  0  0  0
   32.6407   39.7079   59.0841 H   0  0  0  0  0  0  0  0  0  0  0  0
   33.2534   38.8255   56.8627 H   0  0  0  0  0  0  0  0  0  0  0  0
   33.1298   36.4143   56.4351 H   0  0  0  0  0  0  0  0  0  0  0  0
   33.4234   34.0823   57.9576 H   0  0  0  0  0  0  0  0  0  0  0  0
   31.8693   34.3161   57.1220 H   0  0  0  0  0  0  0  0  0  0  0  0
  1  2  1  0  0  0  0
  1 14  1  0  0  0  0
  1 15  1  0  0  0  0
  2  3  1  1  0  0  0
  2 12  1  0  0  0  0
  2  4  1  0  0  0  0
  4  5  1  0  0  0  0
  4 16  1  0  0  0  0
  4 17  1  0  0  0  0
  5 10  2  0  0  0  0
  5  6  1  0  0  0  0
  6  7  2  0  0  0  0
  6 18  1  0  0  0  0
  7  8  1  0  0  0  0
  7 19  1  0  0  0  0
  8  9  2  0  0  0  0
  8 20  1  0  0  0  0
  9 10  1  0  0  0  0
  9 21  1  0  0  0  0
 10 11  1  0  0  0  0
 11 12  1  0  0  0  0
 11 22  1  0  0  0  0
 11 23  1  0  0  0  0
 12 13  2  0  0  0  0
M  END
$$$$
