ZINC000000030041      none
 OpenBabel11202420163D

 36 36  0  0  1  0  0  0  0  0999 V2000
   32.0560   37.3839   63.9548 C   0  0  0  0  0  0  0  0  0  0  0  0
   32.4290   36.7623   62.6074 C   0  0  0  0  0  0  0  0  0  0  0  0
   31.1560   36.4699   61.8107 C   0  0  1  0  0  0  0  0  0  0  0  0
   30.5289   35.7756   62.3700 H   0  0  0  0  0  0  0  0  0  0  0  0
   30.3903   37.7736   61.5761 C   0  0  0  0  0  0  0  0  0  0  0  0
   31.5133   35.8745   60.5207 N   0  0  0  0  0  0  0  0  0  0  0  0
   32.2893   36.5569   59.6554 C   0  0  0  0  0  0  0  0  0  0  0  0
   32.6928   37.6666   59.9455 O   0  0  0  0  0  0  0  0  0  0  0  0
   32.6491   35.9573   58.3564 C   0  0  0  0  0  0  0  0  0  0  0  0
   32.7032   34.5675   58.2175 C   0  0  0  0  0  0  0  0  0  0  0  0
   33.0350   34.0112   57.0033 C   0  0  0  0  0  0  0  0  0  0  0  0
   33.3259   34.8313   55.9165 C   0  0  0  0  0  0  0  0  0  0  0  0
   33.6655   34.2662   54.6922 N   0  0  0  0  0  0  0  0  0  0  0  0
   34.3457   32.9695   54.6476 C   0  0  0  0  0  0  0  0  0  0  0  0
   33.3430   34.9675   53.4471 C   0  0  0  0  0  0  0  0  0  0  0  0
   33.2780   36.2160   56.0531 C   0  0  0  0  0  0  0  0  0  0  0  0
   32.9423   36.7782   57.2634 C   0  0  0  0  0  0  0  0  0  0  0  0
   31.4290   36.6895   64.5141 H   0  0  0  0  0  0  0  0  0  0  0  0
   32.9630   37.5922   64.5224 H   0  0  0  0  0  0  0  0  0  0  0  0
   31.5105   38.3126   63.7880 H   0  0  0  0  0  0  0  0  0  0  0  0
   32.9747   35.8335   62.7742 H   0  0  0  0  0  0  0  0  0  0  0  0
   33.0562   37.4567   62.0482 H   0  0  0  0  0  0  0  0  0  0  0  0
   30.1244   38.2165   62.5360 H   0  0  0  0  0  0  0  0  0  0  0  0
   29.4834   37.5652   61.0085 H   0  0  0  0  0  0  0  0  0  0  0  0
   31.0175   38.4678   61.0169 H   0  0  0  0  0  0  0  0  0  0  0  0
   31.1914   34.9893   60.2892 H   0  0  0  0  0  0  0  0  0  0  0  0
   32.4816   33.9307   59.0612 H   0  0  0  0  0  0  0  0  0  0  0  0
   33.0733   32.9374   56.8943 H   0  0  0  0  0  0  0  0  0  0  0  0
   33.6044   32.1716   54.6039 H   0  0  0  0  0  0  0  0  0  0  0  0
   34.9818   32.9232   53.7636 H   0  0  0  0  0  0  0  0  0  0  0  0
   34.9570   32.8489   55.5419 H   0  0  0  0  0  0  0  0  0  0  0  0
   34.1731   35.6177   53.1708 H   0  0  0  0  0  0  0  0  0  0  0  0
   33.1721   34.2396   52.6539 H   0  0  0  0  0  0  0  0  0  0  0  0
   32.4439   35.5669   53.5901 H   0  0  0  0  0  0  0  0  0  0  0  0
   33.5043   36.8494   55.2082 H   0  0  0  0  0  0  0  0  0  0  0  0
   32.9056   37.8524   57.3688 H   0  0  0  0  0  0  0  0  0  0  0  0
  1  2  1  0  0  0  0
  1 18  1  0  0  0  0
  1 19  1  0  0  0  0
  1 20  1  0  0  0  0
  2  3  1  0  0  0  0
  2 21  1  0  0  0  0
  2 22  1  0  0  0  0
  3  4  1  1  0  0  0
  3  5  1  0  0  0  0
  3  6  1  0  0  0  0
  5 23  1  0  0  0  0
  5 24  1  0  0  0  0
  5 25  1  0  0  0  0
  6  7  1  0  0  0  0
  6 26  1  0  0  0  0
  7  8  2  0  0  0  0
  7  9  1  0  0  0  0
  9 17  2  0  0  0  0
  9 10  1  0  0  0  0
 10 11  2  0  0  0  0
 10 27  1  0  0  0  0
 11 12  1  0  0  0  0
 11 28  1  0  0  0  0
 12 13  1  0  0  0  0
 12 16  2  0  0  0  0
 13 14  1  0  0  0  0
 13 15  1  0  0  0  0
 14 29  1  0  0  0  0
 14 30  1  0  0  0  0
 14 31  1  0  0  0  0
 15 32  1  0  0  0  0
 15 33  1  0  0  0  0
 15 34  1  0  0  0  0
 16 17  1  0  0  0  0
 16 35  1  0  0  0  0
 17 36  1  0  0  0  0
M  END
$$$$
