ZINC000000025797      none
 OpenBabel11202420153D

 28 30  0  0  1  0  0  0  0  0999 V2000
   33.0270   33.6455   61.0876 N   0  0  0  0  0  0  0  0  0  0  0  0
   32.4935   34.4884   60.2642 C   0  0  0  0  0  0  0  0  0  0  0  0
   32.6370   34.3452   58.8997 N   0  0  0  0  0  0  0  0  0  0  0  0
   32.8608   35.5101   58.1512 C   0  0  0  0  0  0  0  0  0  0  0  0
   33.2758   35.3865   56.8297 C   0  0  0  0  0  0  0  0  0  0  0  0
   33.4948   36.5142   56.0649 C   0  0  0  0  0  0  0  0  0  0  0  0
   33.3006   37.7665   56.6192 C   0  0  0  0  0  0  0  0  0  0  0  0
   32.8919   37.8896   57.9312 C   0  0  0  0  0  0  0  0  0  0  0  0
   32.6701   36.7614   58.7103 C   0  0  0  0  0  0  0  0  0  0  0  0
   32.2292   36.9639   60.1342 C   0  0  1  0  0  0  0  0  0  0  0  0
   33.0436   37.3779   60.7289 H   0  0  0  0  0  0  0  0  0  0  0  0
   31.0166   37.9205   60.1386 C   0  0  0  0  0  0  0  0  0  0  0  0
   29.7590   37.0154   60.2327 C   0  0  0  0  0  0  0  0  0  0  0  0
   30.2611   35.5562   60.2459 C   0  0  0  0  0  0  0  0  0  0  0  0
   31.7122   35.6590   60.7654 C   0  0  1  0  0  0  0  0  0  0  0  0
   31.7544   35.7264   62.1621 F   0  0  0  0  0  0  0  0  0  0  0  0
   33.5397   32.8951   60.7489 H   0  0  0  0  0  0  0  0  0  0  0  0
   32.5851   33.4745   58.4751 H   0  0  0  0  0  0  0  0  0  0  0  0
   33.4266   34.4066   56.4011 H   0  0  0  0  0  0  0  0  0  0  0  0
   33.8159   36.4194   55.0381 H   0  0  0  0  0  0  0  0  0  0  0  0
   33.4693   38.6509   56.0228 H   0  0  0  0  0  0  0  0  0  0  0  0
   32.7425   38.8714   58.3558 H   0  0  0  0  0  0  0  0  0  0  0  0
   31.0645   38.5798   61.0052 H   0  0  0  0  0  0  0  0  0  0  0  0
   31.0023   38.5093   59.2215 H   0  0  0  0  0  0  0  0  0  0  0  0
   29.1256   37.1843   59.3619 H   0  0  0  0  0  0  0  0  0  0  0  0
   29.2031   37.2272   61.1461 H   0  0  0  0  0  0  0  0  0  0  0  0
   30.2450   35.1383   59.2394 H   0  0  0  0  0  0  0  0  0  0  0  0
   29.6567   34.9489   60.9198 H   0  0  0  0  0  0  0  0  0  0  0  0
  1  2  2  0  0  0  0
  1 17  1  0  0  0  0
  2 15  1  0  0  0  0
  2  3  1  0  0  0  0
  3  4  1  0  0  0  0
  3 18  1  0  0  0  0
  4  9  2  0  0  0  0
  4  5  1  0  0  0  0
  5  6  2  0  0  0  0
  5 19  1  0  0  0  0
  6  7  1  0  0  0  0
  6 20  1  0  0  0  0
  7  8  2  0  0  0  0
  7 21  1  0  0  0  0
  8  9  1  0  0  0  0
  8 22  1  0  0  0  0
  9 10  1  0  0  0  0
 10 11  1  1  0  0  0
 10 15  1  0  0  0  0
 10 12  1  0  0  0  0
 12 13  1  0  0  0  0
 12 23  1  0  0  0  0
 12 24  1  0  0  0  0
 13 14  1  0  0  0  0
 13 25  1  0  0  0  0
 13 26  1  0  0  0  0
 14 15  1  0  0  0  0
 14 27  1  0  0  0  0
 14 28  1  0  0  0  0
 15 16  1  1  0  0  0
M  END
$$$$
