ZINC000000028984      none
 OpenBabel11202420163D

 38 40  0  0  1  0  0  0  0  0999 V2000
   33.2295   33.5687   53.3517 C   0  0  0  0  0  0  0  0  0  0  0  0
   33.6667   33.6113   54.7357 O   0  0  0  0  0  0  0  0  0  0  0  0
   32.7551   33.9734   55.6520 C   0  0  0  0  0  0  0  0  0  0  0  0
   31.6290   34.2456   55.3089 O   0  0  0  0  0  0  0  0  0  0  0  0
   33.1361   34.0403   57.1084 C   0  0  0  0  0  0  0  0  0  0  0  0
   32.9353   35.4044   57.6036 N   0  0  0  0  0  0  0  0  0  0  0  0
   32.3438   35.7574   58.7766 C   0  0  0  0  0  0  0  0  0  0  0  0
   31.7830   34.7895   59.7863 C   0  0  1  0  0  0  0  0  0  0  0  0
   30.9966   34.1948   59.3217 H   0  0  0  0  0  0  0  0  0  0  0  0
   32.8240   33.9257   60.2472 O   0  0  0  0  0  0  0  0  0  0  0  0
   31.2120   35.5546   60.9524 C   0  0  0  0  0  0  0  0  0  0  0  0
   29.8886   35.9537   60.9357 C   0  0  0  0  0  0  0  0  0  0  0  0
   29.3636   36.6517   62.0071 C   0  0  0  0  0  0  0  0  0  0  0  0
   30.1645   36.9585   63.0913 C   0  0  0  0  0  0  0  0  0  0  0  0
   31.4893   36.5640   63.1056 C   0  0  0  0  0  0  0  0  0  0  0  0
   32.0131   35.8623   62.0361 C   0  0  0  0  0  0  0  0  0  0  0  0
   32.3333   37.0527   58.8999 N   0  0  0  0  0  0  0  0  0  0  0  0
   32.9178   37.6194   57.8133 C   0  0  0  0  0  0  0  0  0  0  0  0
   33.1688   38.9406   57.4332 C   0  0  0  0  0  0  0  0  0  0  0  0
   33.7880   39.2007   56.2436 C   0  0  0  0  0  0  0  0  0  0  0  0
   34.1821   38.1641   55.4093 C   0  0  0  0  0  0  0  0  0  0  0  0
   33.9451   36.8532   55.7639 C   0  0  0  0  0  0  0  0  0  0  0  0
   33.3122   36.5698   56.9666 C   0  0  0  0  0  0  0  0  0  0  0  0
   32.8863   34.5579   53.0485 H   0  0  0  0  0  0  0  0  0  0  0  0
   34.0611   33.2623   52.7173 H   0  0  0  0  0  0  0  0  0  0  0  0
   32.4127   32.8539   53.2506 H   0  0  0  0  0  0  0  0  0  0  0  0
   34.1840   33.7628   57.2230 H   0  0  0  0  0  0  0  0  0  0  0  0
   32.5133   33.3514   57.6789 H   0  0  0  0  0  0  0  0  0  0  0  0
   33.2381   33.4010   59.5484 H   0  0  0  0  0  0  0  0  0  0  0  0
   29.2639   35.7171   60.0871 H   0  0  0  0  0  0  0  0  0  0  0  0
   28.3285   36.9596   61.9960 H   0  0  0  0  0  0  0  0  0  0  0  0
   29.7551   37.5063   63.9272 H   0  0  0  0  0  0  0  0  0  0  0  0
   32.1149   36.8038   63.9526 H   0  0  0  0  0  0  0  0  0  0  0  0
   33.0482   35.5541   62.0472 H   0  0  0  0  0  0  0  0  0  0  0  0
   32.8697   39.7547   58.0768 H   0  0  0  0  0  0  0  0  0  0  0  0
   33.9758   40.2232   55.9512 H   0  0  0  0  0  0  0  0  0  0  0  0
   34.6743   38.3861   54.4739 H   0  0  0  0  0  0  0  0  0  0  0  0
   34.2502   36.0504   55.1089 H   0  0  0  0  0  0  0  0  0  0  0  0
  1  2  1  0  0  0  0
  1 24  1  0  0  0  0
  1 25  1  0  0  0  0
  1 26  1  0  0  0  0
  2  3  1  0  0  0  0
  3  4  2  0  0  0  0
  3  5  1  0  0  0  0
  5  6  1  0  0  0  0
  5 27  1  0  0  0  0
  5 28  1  0  0  0  0
  6 23  1  0  0  0  0
  6  7  1  0  0  0  0
  7  8  1  0  0  0  0
  7 17  2  0  0  0  0
  8  9  1  6  0  0  0
  8 10  1  0  0  0  0
  8 11  1  0  0  0  0
 10 29  1  0  0  0  0
 11 16  2  0  0  0  0
 11 12  1  0  0  0  0
 12 13  2  0  0  0  0
 12 30  1  0  0  0  0
 13 14  1  0  0  0  0
 13 31  1  0  0  0  0
 14 15  2  0  0  0  0
 14 32  1  0  0  0  0
 15 16  1  0  0  0  0
 15 33  1  0  0  0  0
 16 34  1  0  0  0  0
 17 18  1  0  0  0  0
 18 23  2  0  0  0  0
 18 19  1  0  0  0  0
 19 20  2  0  0  0  0
 19 35  1  0  0  0  0
 20 21  1  0  0  0  0
 20 36  1  0  0  0  0
 21 22  2  0  0  0  0
 21 37  1  0  0  0  0
 22 23  1  0  0  0  0
 22 38  1  0  0  0  0
M  END
$$$$
