ZINC000000008506      none
 OpenBabel11202420153D

 27 28  0  0  0  0  0  0  0  0999 V2000
   31.4787   33.0040   62.3717 C   0  0  0  0  0  0  0  0  0  0  0  0
   31.0822   34.4274   62.0750 C   0  0  0  0  0  0  0  0  0  0  0  0
   31.8433   35.3475   61.4525 C   0  0  0  0  0  0  0  0  0  0  0  0
   31.1043   36.4981   61.3930 N   0  0  0  0  0  0  0  0  0  0  0  0
   31.5249   37.7718   60.8039 C   0  0  0  0  0  0  0  0  0  0  0  0
   32.1809   37.5168   59.4714 C   0  0  0  0  0  0  0  0  0  0  0  0
   32.6587   38.5813   58.7303 C   0  0  0  0  0  0  0  0  0  0  0  0
   33.2601   38.3358   57.5055 C   0  0  0  0  0  0  0  0  0  0  0  0
   33.3587   37.0229   57.0700 C   0  0  0  0  0  0  0  0  0  0  0  0
   32.8527   36.0106   57.8630 C   0  0  0  0  0  0  0  0  0  0  0  0
   32.2919   36.2808   59.0256 N   0  0  0  0  0  0  0  0  0  0  0  0
   29.9130   36.2382   61.9732 C   0  0  0  0  0  0  0  0  0  0  0  0
   28.7787   37.2183   62.1277 C   0  0  0  0  0  0  0  0  0  0  0  0
   29.9069   34.9978   62.3788 N   0  0  0  0  0  0  0  0  0  0  0  0
   31.1958   32.3660   61.5344 H   0  0  0  0  0  0  0  0  0  0  0  0
   32.5571   32.9508   62.5210 H   0  0  0  0  0  0  0  0  0  0  0  0
   30.9698   32.6657   63.2743 H   0  0  0  0  0  0  0  0  0  0  0  0
   32.8452   35.2055   61.0749 H   0  0  0  0  0  0  0  0  0  0  0  0
   32.2341   38.2635   61.4698 H   0  0  0  0  0  0  0  0  0  0  0  0
   30.6541   38.4123   60.6636 H   0  0  0  0  0  0  0  0  0  0  0  0
   32.5645   39.5914   59.1005 H   0  0  0  0  0  0  0  0  0  0  0  0
   33.6429   39.1477   56.9050 H   0  0  0  0  0  0  0  0  0  0  0  0
   33.8211   36.7949   56.1210 H   0  0  0  0  0  0  0  0  0  0  0  0
   32.9213   34.9859   57.5287 H   0  0  0  0  0  0  0  0  0  0  0  0
   28.1269   37.1598   61.2561 H   0  0  0  0  0  0  0  0  0  0  0  0
   28.2088   36.9760   63.0246 H   0  0  0  0  0  0  0  0  0  0  0  0
   29.1802   38.2280   62.2142 H   0  0  0  0  0  0  0  0  0  0  0  0
  1  2  1  0  0  0  0
  1 15  1  0  0  0  0
  1 16  1  0  0  0  0
  1 17  1  0  0  0  0
  2 14  1  0  0  0  0
  2  3  2  0  0  0  0
  3  4  1  0  0  0  0
  3 18  1  0  0  0  0
  4  5  1  0  0  0  0
  4 12  1  0  0  0  0
  5  6  1  0  0  0  0
  5 19  1  0  0  0  0
  5 20  1  0  0  0  0
  6 11  2  0  0  0  0
  6  7  1  0  0  0  0
  7  8  2  0  0  0  0
  7 21  1  0  0  0  0
  8  9  1  0  0  0  0
  8 22  1  0  0  0  0
  9 10  2  0  0  0  0
  9 23  1  0  0  0  0
 10 11  1  0  0  0  0
 10 24  1  0  0  0  0
 12 13  1  0  0  0  0
 12 14  2  0  0  0  0
 13 25  1  0  0  0  0
 13 26  1  0  0  0  0
 13 27  1  0  0  0  0
M  END
$$$$
