ZINC000000038134      none
 OpenBabel11202420153D

 37 40  0  0  0  0  0  0  0  0999 V2000
   33.8570   36.5152   52.4243 C   0  0  0  0  0  0  0  0  0  0  0  0
   33.7938   36.0270   53.8487 C   0  0  0  0  0  0  0  0  0  0  0  0
   34.2370   34.7817   54.3056 C   0  0  0  0  0  0  0  0  0  0  0  0
   34.0073   34.7224   55.6459 C   0  0  0  0  0  0  0  0  0  0  0  0
   34.3028   33.6542   56.4852 N   0  0  0  0  0  0  0  0  0  0  0  0
   33.4344   35.9038   56.0139 N   0  0  0  0  0  0  0  0  0  0  0  0
   33.0389   36.2575   57.2981 C   0  0  0  0  0  0  0  0  0  0  0  0
   32.6380   35.3387   58.1612 N   0  0  0  0  0  0  0  0  0  0  0  0
   32.2559   35.6641   59.3946 C   0  0  0  0  0  0  0  0  0  0  0  0
   31.8176   34.5840   60.3110 C   0  0  0  0  0  0  0  0  0  0  0  0
   31.4027   34.8815   61.6130 C   0  0  0  0  0  0  0  0  0  0  0  0
   31.0025   33.8376   62.4288 C   0  0  0  0  0  0  0  0  0  0  0  0
   31.0257   32.5456   61.9350 C   0  0  0  0  0  0  0  0  0  0  0  0
   31.4222   32.2958   60.7021 N   0  0  0  0  0  0  0  0  0  0  0  0
   31.8068   33.2567   59.8871 C   0  0  0  0  0  0  0  0  0  0  0  0
   32.2509   36.9085   59.8351 N   0  0  0  0  0  0  0  0  0  0  0  0
   32.6393   37.9108   59.0371 C   0  0  0  0  0  0  0  0  0  0  0  0
   32.6463   39.2446   59.4713 C   0  0  0  0  0  0  0  0  0  0  0  0
   33.0507   40.2276   58.6183 C   0  0  0  0  0  0  0  0  0  0  0  0
   33.4578   39.9294   57.3204 C   0  0  0  0  0  0  0  0  0  0  0  0
   33.4634   38.6439   56.8655 C   0  0  0  0  0  0  0  0  0  0  0  0
   33.0542   37.6096   57.7152 C   0  0  0  0  0  0  0  0  0  0  0  0
   33.3106   36.6947   54.8644 N   0  0  0  0  0  0  0  0  0  0  0  0
   32.9407   36.2365   51.9036 H   0  0  0  0  0  0  0  0  0  0  0  0
   33.9637   37.6000   52.4164 H   0  0  0  0  0  0  0  0  0  0  0  0
   34.7121   36.0624   51.9225 H   0  0  0  0  0  0  0  0  0  0  0  0
   34.6827   34.0047   53.7021 H   0  0  0  0  0  0  0  0  0  0  0  0
   34.0990   33.7104   57.4319 H   0  0  0  0  0  0  0  0  0  0  0  0
   34.7126   32.8525   56.1241 H   0  0  0  0  0  0  0  0  0  0  0  0
   31.3944   35.8999   61.9723 H   0  0  0  0  0  0  0  0  0  0  0  0
   30.6755   34.0297   63.4399 H   0  0  0  0  0  0  0  0  0  0  0  0
   30.7144   31.7287   62.5692 H   0  0  0  0  0  0  0  0  0  0  0  0
   32.1208   33.0129   58.8830 H   0  0  0  0  0  0  0  0  0  0  0  0
   32.3330   39.4910   60.4749 H   0  0  0  0  0  0  0  0  0  0  0  0
   33.0559   41.2540   58.9544 H   0  0  0  0  0  0  0  0  0  0  0  0
   33.7691   40.7281   56.6635 H   0  0  0  0  0  0  0  0  0  0  0  0
   33.7810   38.4253   55.8566 H   0  0  0  0  0  0  0  0  0  0  0  0
  1  2  1  0  0  0  0
  1 24  1  0  0  0  0
  1 25  1  0  0  0  0
  1 26  1  0  0  0  0
  2 23  2  0  0  0  0
  2  3  1  0  0  0  0
  3  4  2  0  0  0  0
  3 27  1  0  0  0  0
  4  5  1  0  0  0  0
  4  6  1  0  0  0  0
  5 28  1  0  0  0  0
  5 29  1  0  0  0  0
  6  7  1  0  0  0  0
  6 23  1  0  0  0  0
  7 22  2  0  0  0  0
  7  8  1  0  0  0  0
  8  9  2  0  0  0  0
  9 10  1  0  0  0  0
  9 16  1  0  0  0  0
 10 15  2  0  0  0  0
 10 11  1  0  0  0  0
 11 12  2  0  0  0  0
 11 30  1  0  0  0  0
 12 13  1  0  0  0  0
 12 31  1  0  0  0  0
 13 14  2  0  0  0  0
 13 32  1  0  0  0  0
 14 15  1  0  0  0  0
 15 33  1  0  0  0  0
 16 17  2  0  0  0  0
 17 22  1  0  0  0  0
 17 18  1  0  0  0  0
 18 19  2  0  0  0  0
 18 34  1  0  0  0  0
 19 20  1  0  0  0  0
 19 35  1  0  0  0  0
 20 21  2  0  0  0  0
 20 36  1  0  0  0  0
 21 22  1  0  0  0  0
 21 37  1  0  0  0  0
M  END
$$$$
