ZINC000000002014      none
 OpenBabel11202420153D

 30 31  0  0  0  0  0  0  0  0999 V2000
   31.7576   36.4748   60.5147 C   0  0  0  0  0  0  0  0  0  0  0  0
   32.0908   35.8405   59.1628 C   0  0  0  0  0  0  0  0  0  0  0  0
   32.6304   36.8959   58.2321 C   0  0  0  0  0  0  0  0  0  0  0  0
   32.7489   38.1484   58.6273 N   0  0  0  0  0  0  0  0  0  0  0  0
   33.2264   39.0880   57.8250 C   0  0  0  0  0  0  0  0  0  0  0  0
   33.6007   38.8467   56.5911 N   0  0  0  0  0  0  0  0  0  0  0  0
   33.5154   37.6078   56.0903 C   0  0  0  0  0  0  0  0  0  0  0  0
   33.9054   37.3107   54.7774 C   0  0  0  0  0  0  0  0  0  0  0  0
   33.7974   36.0301   54.3141 C   0  0  0  0  0  0  0  0  0  0  0  0
   34.1755   35.7443   53.0413 O   0  0  0  0  0  0  0  0  0  0  0  0
   33.1749   35.8539   52.0270 C   0  0  0  0  0  0  0  0  0  0  0  0
   33.3015   35.0052   55.1355 C   0  0  0  0  0  0  0  0  0  0  0  0
   33.2054   33.7403   54.6469 O   0  0  0  0  0  0  0  0  0  0  0  0
   34.3411   32.8902   54.8195 C   0  0  0  0  0  0  0  0  0  0  0  0
   32.9144   35.2637   56.4182 C   0  0  0  0  0  0  0  0  0  0  0  0
   33.0139   36.5705   56.9206 C   0  0  0  0  0  0  0  0  0  0  0  0
   31.3674   35.7116   61.1878 H   0  0  0  0  0  0  0  0  0  0  0  0
   32.6600   36.9107   60.9437 H   0  0  0  0  0  0  0  0  0  0  0  0
   31.0085   37.2542   60.3756 H   0  0  0  0  0  0  0  0  0  0  0  0
   31.1884   35.4048   58.7338 H   0  0  0  0  0  0  0  0  0  0  0  0
   32.8400   35.0611   59.3018 H   0  0  0  0  0  0  0  0  0  0  0  0
   33.3063   40.0971   58.2013 H   0  0  0  0  0  0  0  0  0  0  0  0
   34.2891   38.0898   54.1355 H   0  0  0  0  0  0  0  0  0  0  0  0
   32.3556   35.1703   52.2496 H   0  0  0  0  0  0  0  0  0  0  0  0
   32.7975   36.8760   51.9979 H   0  0  0  0  0  0  0  0  0  0  0  0
   33.6083   35.5990   51.0600 H   0  0  0  0  0  0  0  0  0  0  0  0
   34.5527   32.7781   55.8829 H   0  0  0  0  0  0  0  0  0  0  0  0
   34.1322   31.9123   54.3857 H   0  0  0  0  0  0  0  0  0  0  0  0
   35.2044   33.3317   54.3217 H   0  0  0  0  0  0  0  0  0  0  0  0
   32.5338   34.4686   57.0422 H   0  0  0  0  0  0  0  0  0  0  0  0
  1  2  1  0  0  0  0
  1 17  1  0  0  0  0
  1 18  1  0  0  0  0
  1 19  1  0  0  0  0
  2  3  1  0  0  0  0
  2 20  1  0  0  0  0
  2 21  1  0  0  0  0
  3 16  2  0  0  0  0
  3  4  1  0  0  0  0
  4  5  2  0  0  0  0
  5  6  1  0  0  0  0
  5 22  1  0  0  0  0
  6  7  2  0  0  0  0
  7 16  1  0  0  0  0
  7  8  1  0  0  0  0
  8  9  2  0  0  0  0
  8 23  1  0  0  0  0
  9 10  1  0  0  0  0
  9 12  1  0  0  0  0
 10 11  1  0  0  0  0
 11 24  1  0  0  0  0
 11 25  1  0  0  0  0
 11 26  1  0  0  0  0
 12 13  1  0  0  0  0
 12 15  2  0  0  0  0
 13 14  1  0  0  0  0
 14 27  1  0  0  0  0
 14 28  1  0  0  0  0
 14 29  1  0  0  0  0
 15 16  1  0  0  0  0
 15 30  1  0  0  0  0
M  END
$$$$
