ZINC000000032091      none
 OpenBabel11202420153D

 22 23  0  0  0  0  0  0  0  0999 V2000
   31.5731   35.6913   65.0171 O   0  0  0  0  0  0  0  0  0  0  0  0
   32.4159   36.8258   64.8053 C   0  0  0  0  0  0  0  0  0  0  0  0
   32.1098   37.4254   63.5042 N   0  0  0  0  0  0  0  0  0  0  0  0
   32.7009   37.1002   62.2743 N   0  0  0  0  0  0  0  0  0  0  0  0
   32.1578   37.8528   61.3614 C   0  0  0  0  0  0  0  0  0  0  0  0
   32.4938   37.8325   59.9216 C   0  0  0  0  0  0  0  0  0  0  0  0
   32.9757   38.9844   59.2982 C   0  0  0  0  0  0  0  0  0  0  0  0
   33.2939   38.9577   57.9565 C   0  0  0  0  0  0  0  0  0  0  0  0
   33.1241   37.7945   57.2241 C   0  0  0  0  0  0  0  0  0  0  0  0
   33.5195   37.7715   55.5339 Cl  0  0  0  0  0  0  0  0  0  0  0  0
   32.6407   36.6499   57.8345 C   0  0  0  0  0  0  0  0  0  0  0  0
   32.3249   36.6622   59.1787 C   0  0  0  0  0  0  0  0  0  0  0  0
   31.7199   35.2258   59.9434 Cl  0  0  0  0  0  0  0  0  0  0  0  0
   31.2382   38.6553   61.9403 O   0  0  0  0  0  0  0  0  0  0  0  0
   31.2007   38.3925   63.2581 C   0  0  0  0  0  0  0  0  0  0  0  0
   30.1880   39.1481   64.4132 S   0  0  0  0  0  0  0  0  0  0  0  0
   30.6283   35.8969   65.0130 H   0  0  0  0  0  0  0  0  0  0  0  0
   32.2430   37.5590   65.5930 H   0  0  0  0  0  0  0  0  0  0  0  0
   33.4595   36.5115   64.8242 H   0  0  0  0  0  0  0  0  0  0  0  0
   33.1039   39.8938   59.8665 H   0  0  0  0  0  0  0  0  0  0  0  0
   33.6714   39.8474   57.4745 H   0  0  0  0  0  0  0  0  0  0  0  0
   32.5107   35.7457   57.2583 H   0  0  0  0  0  0  0  0  0  0  0  0
  1  2  1  0  0  0  0
  1 17  1  0  0  0  0
  2  3  1  0  0  0  0
  2 18  1  0  0  0  0
  2 19  1  0  0  0  0
  3 15  1  0  0  0  0
  3  4  1  0  0  0  0
  4  5  2  0  0  0  0
  5  6  1  0  0  0  0
  5 14  1  0  0  0  0
  6 12  2  0  0  0  0
  6  7  1  0  0  0  0
  7  8  2  0  0  0  0
  7 20  1  0  0  0  0
  8  9  1  0  0  0  0
  8 21  1  0  0  0  0
  9 10  1  0  0  0  0
  9 11  2  0  0  0  0
 11 12  1  0  0  0  0
 11 22  1  0  0  0  0
 12 13  1  0  0  0  0
 14 15  1  0  0  0  0
 15 16  2  0  0  0  0
M  END
$$$$
