ZINC000000039962      none
 OpenBabel11202420153D

 20 21  0  0  0  0  0  0  0  0999 V2000
   30.7608   33.9862   63.7435 N   0  0  0  0  0  0  0  0  0  0  0  0
   31.0999   34.5858   62.8403 C   0  0  0  0  0  0  0  0  0  0  0  0
   31.5275   35.3418   61.7018 C   0  0  0  0  0  0  0  0  0  0  0  0
   31.2498   34.8886   60.4083 C   0  0  0  0  0  0  0  0  0  0  0  0
   31.6697   35.6420   59.3233 C   0  0  0  0  0  0  0  0  0  0  0  0
   32.3664   36.8245   59.5315 C   0  0  0  0  0  0  0  0  0  0  0  0
   32.8132   37.6145   58.3820 C   0  0  0  0  0  0  0  0  0  0  0  0
   33.1457   37.1114   57.1542 C   0  0  0  0  0  0  0  0  0  0  0  0
   33.5317   38.0798   56.2570 C   0  0  0  0  0  0  0  0  0  0  0  0
   33.5166   39.3308   56.7306 C   0  0  0  0  0  0  0  0  0  0  0  0
   33.0076   39.3618   58.3587 S   0  0  0  0  0  0  0  0  0  0  0  0
   32.6352   37.2627   60.8006 N   0  0  0  0  0  0  0  0  0  0  0  0
   33.1203   38.0931   60.9278 H   0  0  0  0  0  0  0  0  0  0  0  0
   32.2353   36.5556   61.8742 C   0  0  0  0  0  0  0  0  0  0  0  0
   32.5838   37.1251   63.4507 S   0  0  0  0  0  0  0  0  0  0  0  0
   30.7106   33.9652   60.2566 H   0  0  0  0  0  0  0  0  0  0  0  0
   31.4591   35.3077   58.3182 H   0  0  0  0  0  0  0  0  0  0  0  0
   33.1082   36.0593   56.9133 H   0  0  0  0  0  0  0  0  0  0  0  0
   33.8255   37.8471   55.2441 H   0  0  0  0  0  0  0  0  0  0  0  0
   33.7864   40.2053   56.1571 H   0  0  0  0  0  0  0  0  0  0  0  0
  1  2  3  0  0  0  0
  2  3  1  0  0  0  0
  3 14  1  0  0  0  0
  3  4  2  0  0  0  0
  4  5  1  0  0  0  0
  4 16  1  0  0  0  0
  5  6  2  0  0  0  0
  5 17  1  0  0  0  0
  6  7  1  0  0  0  0
  6 12  1  0  0  0  0
  7 11  1  0  0  0  0
  7  8  2  0  0  0  0
  8  9  1  0  0  0  0
  8 18  1  0  0  0  0
  9 10  2  0  0  0  0
  9 19  1  0  0  0  0
 10 11  1  0  0  0  0
 10 20  1  0  0  0  0
 12 13  1  0  0  0  0
 12 14  1  0  0  0  0
 14 15  2  0  0  0  0
M  END
$$$$
