ZINC000000048742      none
 OpenBabel11202420153D

 32 34  0  0  1  0  0  0  0  0999 V2000
   32.2833   38.0686   58.4100 C   0  0  0  0  0  0  0  0  0  0  0  0
   32.0457   37.5334   59.8235 C   0  0  2  0  0  0  0  0  0  0  0  0
   32.9140   37.7453   60.4474 H   0  0  0  0  0  0  0  0  0  0  0  0
   31.8063   36.0213   59.7690 C   0  0  0  0  0  0  0  0  0  0  0  0
   31.4107   35.5353   61.1455 C   0  0  0  0  0  0  0  0  0  0  0  0
   30.7772   36.3680   61.9868 C   0  0  0  0  0  0  0  0  0  0  0  0
   30.4935   37.7019   61.5948 C   0  0  0  0  0  0  0  0  0  0  0  0
   29.8941   38.4406   62.3532 O   0  0  0  0  0  0  0  0  0  0  0  0
   30.8843   38.1557   60.3860 O   0  0  0  0  0  0  0  0  0  0  0  0
   30.3549   35.9066   63.3578 C   0  0  2  0  0  0  0  0  0  0  0  0
   29.3523   36.2770   63.5712 H   0  0  0  0  0  0  0  0  0  0  0  0
   31.3164   36.4462   64.3852 C   0  0  0  0  0  0  0  0  0  0  0  0
   31.9904   37.5923   64.2804 C   0  0  0  0  0  0  0  0  0  0  0  0
   32.8155   37.8839   65.3530 C   0  0  0  0  0  0  0  0  0  0  0  0
   32.8183   36.9703   66.3247 C   0  0  0  0  0  0  0  0  0  0  0  0
   31.7271   35.6569   65.9025 S   0  0  0  0  0  0  0  0  0  0  0  0
   30.3477   34.4037   63.4138 C   0  0  0  0  0  0  0  0  0  0  0  0
   29.6307   33.7346   64.4574 C   0  0  0  0  0  0  0  0  0  0  0  0
   29.0619   33.2040   65.2852 N   0  0  0  0  0  0  0  0  0  0  0  0
   31.0194   33.6781   62.4870 C   0  0  0  0  0  0  0  0  0  0  0  0
   30.9976   32.3076   62.5635 N   0  0  0  0  0  0  0  0  0  0  0  0
   31.7013   34.2689   61.4923 O   0  0  0  0  0  0  0  0  0  0  0  0
   31.4094   37.8631   57.7919 H   0  0  0  0  0  0  0  0  0  0  0  0
   32.4533   39.1445   58.4526 H   0  0  0  0  0  0  0  0  0  0  0  0
   33.1567   37.5798   57.9784 H   0  0  0  0  0  0  0  0  0  0  0  0
   32.7205   35.5185   59.4534 H   0  0  0  0  0  0  0  0  0  0  0  0
   31.0061   35.8040   59.0615 H   0  0  0  0  0  0  0  0  0  0  0  0
   31.8976   38.2448   63.4247 H   0  0  0  0  0  0  0  0  0  0  0  0
   33.4146   38.7815   65.3979 H   0  0  0  0  0  0  0  0  0  0  0  0
   33.4016   37.0277   67.2317 H   0  0  0  0  0  0  0  0  0  0  0  0
   31.4713   31.7774   61.9037 H   0  0  0  0  0  0  0  0  0  0  0  0
   30.5118   31.8695   63.2798 H   0  0  0  0  0  0  0  0  0  0  0  0
  1  2  1  0  0  0  0
  1 23  1  0  0  0  0
  1 24  1  0  0  0  0
  1 25  1  0  0  0  0
  2  3  1  1  0  0  0
  2  9  1  0  0  0  0
  2  4  1  0  0  0  0
  4  5  1  0  0  0  0
  4 26  1  0  0  0  0
  4 27  1  0  0  0  0
  5 22  1  0  0  0  0
  5  6  2  0  0  0  0
  6  7  1  0  0  0  0
  6 10  1  0  0  0  0
  7  8  2  0  0  0  0
  7  9  1  0  0  0  0
 10 11  1  1  0  0  0
 10 12  1  0  0  0  0
 10 17  1  0  0  0  0
 12 16  1  0  0  0  0
 12 13  2  0  0  0  0
 13 14  1  0  0  0  0
 13 28  1  0  0  0  0
 14 15  2  0  0  0  0
 14 29  1  0  0  0  0
 15 16  1  0  0  0  0
 15 30  1  0  0  0  0
 17 18  1  0  0  0  0
 17 20  2  0  0  0  0
 18 19  3  0  0  0  0
 20 21  1  0  0  0  0
 20 22  1  0  0  0  0
 21 31  1  0  0  0  0
 21 32  1  0  0  0  0
M  END
$$$$
