ZINC000000017230      none
 OpenBabel11202420153D

 31 32  0  0  1  0  0  0  0  0999 V2000
   31.0420   38.2990   62.5419 C   0  0  0  0  0  0  0  0  0  0  0  0
   30.2305   37.2945   61.9298 O   0  0  0  0  0  0  0  0  0  0  0  0
   30.5957   36.9972   60.5446 N   0  0  0  0  0  0  0  0  0  0  0  0
   31.7568   36.0990   60.4875 C   0  0  1  0  0  0  0  0  0  0  0  0
   32.4920   36.3664   61.2464 H   0  0  0  0  0  0  0  0  0  0  0  0
   31.3210   34.6220   60.6360 C   0  0  0  0  0  0  0  0  0  0  0  0
   32.2203   33.9345   59.7497 O   0  0  0  0  0  0  0  0  0  0  0  0
   32.6014   34.7800   58.7528 C   0  0  0  0  0  0  0  0  0  0  0  0
   33.1619   34.4971   57.5099 C   0  0  0  0  0  0  0  0  0  0  0  0
   33.4966   35.5244   56.6441 C   0  0  0  0  0  0  0  0  0  0  0  0
   34.0432   35.2377   55.4334 O   0  0  0  0  0  0  0  0  0  0  0  0
   34.2432   33.8574   55.1223 C   0  0  0  0  0  0  0  0  0  0  0  0
   33.2769   36.8449   57.0072 C   0  0  0  0  0  0  0  0  0  0  0  0
   32.7156   37.1326   58.2431 C   0  0  0  0  0  0  0  0  0  0  0  0
   32.4967   38.4236   58.6066 O   0  0  0  0  0  0  0  0  0  0  0  0
   32.8689   39.4342   57.6672 C   0  0  0  0  0  0  0  0  0  0  0  0
   32.3788   36.1045   59.1044 C   0  0  0  0  0  0  0  0  0  0  0  0
   32.0819   37.9729   62.5463 H   0  0  0  0  0  0  0  0  0  0  0  0
   30.9549   39.2287   61.9798 H   0  0  0  0  0  0  0  0  0  0  0  0
   30.7075   38.4613   63.5667 H   0  0  0  0  0  0  0  0  0  0  0  0
   30.7689   37.8453   60.0262 H   0  0  0  0  0  0  0  0  0  0  0  0
   31.4550   34.2812   61.6627 H   0  0  0  0  0  0  0  0  0  0  0  0
   30.2874   34.4902   60.3159 H   0  0  0  0  0  0  0  0  0  0  0  0
   33.3361   33.4715   57.2198 H   0  0  0  0  0  0  0  0  0  0  0  0
   34.9123   33.4123   55.8585 H   0  0  0  0  0  0  0  0  0  0  0  0
   33.2850   33.3381   55.1413 H   0  0  0  0  0  0  0  0  0  0  0  0
   34.6846   33.7689   54.1296 H   0  0  0  0  0  0  0  0  0  0  0  0
   33.5410   37.6448   56.3314 H   0  0  0  0  0  0  0  0  0  0  0  0
   33.9373   39.3646   57.4630 H   0  0  0  0  0  0  0  0  0  0  0  0
   32.3119   39.2922   56.7411 H   0  0  0  0  0  0  0  0  0  0  0  0
   32.6412   40.4165   58.0811 H   0  0  0  0  0  0  0  0  0  0  0  0
  1  2  1  0  0  0  0
  1 18  1  0  0  0  0
  1 19  1  0  0  0  0
  1 20  1  0  0  0  0
  2  3  1  0  0  0  0
  3  4  1  0  0  0  0
  3 21  1  0  0  0  0
  4  5  1  1  0  0  0
  4 17  1  0  0  0  0
  4  6  1  0  0  0  0
  6  7  1  0  0  0  0
  6 22  1  0  0  0  0
  6 23  1  0  0  0  0
  7  8  1  0  0  0  0
  8 17  2  0  0  0  0
  8  9  1  0  0  0  0
  9 10  2  0  0  0  0
  9 24  1  0  0  0  0
 10 11  1  0  0  0  0
 10 13  1  0  0  0  0
 11 12  1  0  0  0  0
 12 25  1  0  0  0  0
 12 26  1  0  0  0  0
 12 27  1  0  0  0  0
 13 14  2  0  0  0  0
 13 28  1  0  0  0  0
 14 15  1  0  0  0  0
 14 17  1  0  0  0  0
 15 16  1  0  0  0  0
 16 29  1  0  0  0  0
 16 30  1  0  0  0  0
 16 31  1  0  0  0  0
M  END
$$$$
