ZINC000000032856      none
 OpenBabel11202420153D

 41 43  0  0  0  0  0  0  0  0999 V2000
   33.2875   39.3149   58.1172 C   0  0  0  0  0  0  0  0  0  0  0  0
   33.1792   37.9329   57.5263 C   0  0  0  0  0  0  0  0  0  0  0  0
   33.5671   37.7229   56.2150 C   0  0  0  0  0  0  0  0  0  0  0  0
   33.4688   36.4548   55.6699 C   0  0  0  0  0  0  0  0  0  0  0  0
   33.8828   36.1928   54.2448 C   0  0  0  0  0  0  0  0  0  0  0  0
   32.9697   35.4228   56.4729 C   0  0  0  0  0  0  0  0  0  0  0  0
   32.8420   34.0934   55.9559 C   0  0  0  0  0  0  0  0  0  0  0  0
   32.7406   33.0389   55.5459 N   0  0  0  0  0  0  0  0  0  0  0  0
   32.6012   35.7140   57.7977 C   0  0  0  0  0  0  0  0  0  0  0  0
   32.1098   34.7085   58.6128 N   0  0  0  0  0  0  0  0  0  0  0  0
   31.7363   34.9957   59.9310 C   0  0  0  0  0  0  0  0  0  0  0  0
   32.3609   34.3456   60.9874 C   0  0  0  0  0  0  0  0  0  0  0  0
   31.9956   34.6333   62.2875 C   0  0  0  0  0  0  0  0  0  0  0  0
   30.9972   35.5635   62.5383 C   0  0  0  0  0  0  0  0  0  0  0  0
   30.6345   35.8425   63.8185 O   0  0  0  0  0  0  0  0  0  0  0  0
   31.2874   36.8452   64.4625 C   0  0  0  0  0  0  0  0  0  0  0  0
   32.4311   36.5698   65.1982 C   0  0  0  0  0  0  0  0  0  0  0  0
   33.0963   37.5920   65.8471 C   0  0  0  0  0  0  0  0  0  0  0  0
   32.6167   38.8868   65.7732 C   0  0  0  0  0  0  0  0  0  0  0  0
   31.4741   39.1631   65.0455 C   0  0  0  0  0  0  0  0  0  0  0  0
   30.8084   38.1456   64.3899 C   0  0  0  0  0  0  0  0  0  0  0  0
   30.3691   36.2095   61.4832 C   0  0  0  0  0  0  0  0  0  0  0  0
   30.7370   35.9267   60.1828 C   0  0  0  0  0  0  0  0  0  0  0  0
   32.7162   36.9462   58.2686 N   0  0  0  0  0  0  0  0  0  0  0  0
   32.3586   39.8582   57.9437 H   0  0  0  0  0  0  0  0  0  0  0  0
   33.4688   39.2386   59.1893 H   0  0  0  0  0  0  0  0  0  0  0  0
   34.1135   39.8479   57.6462 H   0  0  0  0  0  0  0  0  0  0  0  0
   33.9435   38.5426   55.6211 H   0  0  0  0  0  0  0  0  0  0  0  0
   34.9377   35.9197   54.2173 H   0  0  0  0  0  0  0  0  0  0  0  0
   33.7247   37.0920   53.6493 H   0  0  0  0  0  0  0  0  0  0  0  0
   33.2856   35.3773   53.8369 H   0  0  0  0  0  0  0  0  0  0  0  0
   32.0244   33.8049   58.2704 H   0  0  0  0  0  0  0  0  0  0  0  0
   33.1349   33.6181   60.7921 H   0  0  0  0  0  0  0  0  0  0  0  0
   32.4841   34.1308   63.1093 H   0  0  0  0  0  0  0  0  0  0  0  0
   32.8032   35.5579   65.2603 H   0  0  0  0  0  0  0  0  0  0  0  0
   33.9890   37.3789   66.4163 H   0  0  0  0  0  0  0  0  0  0  0  0
   33.1355   39.6837   66.2853 H   0  0  0  0  0  0  0  0  0  0  0  0
   31.1015   40.1752   64.9895 H   0  0  0  0  0  0  0  0  0  0  0  0
   29.9157   38.3618   63.8218 H   0  0  0  0  0  0  0  0  0  0  0  0
   29.5921   36.9335   61.6791 H   0  0  0  0  0  0  0  0  0  0  0  0
   30.2474   36.4291   59.3615 H   0  0  0  0  0  0  0  0  0  0  0  0
  1  2  1  0  0  0  0
  1 25  1  0  0  0  0
  1 26  1  0  0  0  0
  1 27  1  0  0  0  0
  2 24  2  0  0  0  0
  2  3  1  0  0  0  0
  3  4  2  0  0  0  0
  3 28  1  0  0  0  0
  4  5  1  0  0  0  0
  4  6  1  0  0  0  0
  5 29  1  0  0  0  0
  5 30  1  0  0  0  0
  5 31  1  0  0  0  0
  6  7  1  0  0  0  0
  6  9  2  0  0  0  0
  7  8  3  0  0  0  0
  9 10  1  0  0  0  0
  9 24  1  0  0  0  0
 10 11  1  0  0  0  0
 10 32  1  0  0  0  0
 11 23  2  0  0  0  0
 11 12  1  0  0  0  0
 12 13  2  0  0  0  0
 12 33  1  0  0  0  0
 13 14  1  0  0  0  0
 13 34  1  0  0  0  0
 14 15  1  0  0  0  0
 14 22  2  0  0  0  0
 15 16  1  0  0  0  0
 16 21  2  0  0  0  0
 16 17  1  0  0  0  0
 17 18  2  0  0  0  0
 17 35  1  0  0  0  0
 18 19  1  0  0  0  0
 18 36  1  0  0  0  0
 19 20  2  0  0  0  0
 19 37  1  0  0  0  0
 20 21  1  0  0  0  0
 20 38  1  0  0  0  0
 21 39  1  0  0  0  0
 22 23  1  0  0  0  0
 22 40  1  0  0  0  0
 23 41  1  0  0  0  0
M  END
$$$$
