ZINC000000041041      none
 OpenBabel11202420153D

 35 36  0  0  1  0  0  0  0  0999 V2000
   30.6675   35.8836   63.9966 C   0  0  0  0  0  0  0  0  0  0  0  0
   29.5809   36.8640   63.5503 C   0  0  2  0  0  0  0  0  0  0  0  0
   28.6713   36.6882   64.1245 H   0  0  0  0  0  0  0  0  0  0  0  0
   29.2382   36.6375   61.7793 S   0  0  0  0  0  0  0  0  0  0  0  0
   30.6322   37.4272   61.0387 C   0  0  0  0  0  0  0  0  0  0  0  0
   31.1076   36.9928   59.8420 N   0  0  0  0  0  0  0  0  0  0  0  0
   31.5332   35.7632   59.7152 C   0  0  0  0  0  0  0  0  0  0  0  0
   32.0470   35.2938   58.4221 C   0  0  0  0  0  0  0  0  0  0  0  0
   31.9228   33.9455   58.0646 C   0  0  0  0  0  0  0  0  0  0  0  0
   32.3992   33.5126   56.8541 C   0  0  0  0  0  0  0  0  0  0  0  0
   33.0156   34.4091   55.9854 C   0  0  0  0  0  0  0  0  0  0  0  0
   33.5024   33.9644   54.7599 N   0  0  0  0  0  0  0  0  0  0  0  0
   34.5337   32.9250   54.7149 C   0  0  0  0  0  0  0  0  0  0  0  0
   32.9833   34.5357   53.5147 C   0  0  0  0  0  0  0  0  0  0  0  0
   33.1460   35.7496   56.3388 C   0  0  0  0  0  0  0  0  0  0  0  0
   32.6679   36.1922   57.5450 C   0  0  0  0  0  0  0  0  0  0  0  0
   31.2029   38.4299   61.6462 N   0  0  0  0  0  0  0  0  0  0  0  0
   30.7772   38.9378   62.8640 N   0  0  0  0  0  0  0  0  0  0  0  0
   30.0532   38.2773   63.7710 C   0  0  0  0  0  0  0  0  0  0  0  0
   29.7661   38.8351   64.8100 O   0  0  0  0  0  0  0  0  0  0  0  0
   30.8750   36.0290   65.0567 H   0  0  0  0  0  0  0  0  0  0  0  0
   30.3260   34.8621   63.8298 H   0  0  0  0  0  0  0  0  0  0  0  0
   31.5760   36.0614   63.4209 H   0  0  0  0  0  0  0  0  0  0  0  0
   31.5069   35.0926   60.5615 H   0  0  0  0  0  0  0  0  0  0  0  0
   31.4489   33.2483   58.7398 H   0  0  0  0  0  0  0  0  0  0  0  0
   32.3002   32.4737   56.5758 H   0  0  0  0  0  0  0  0  0  0  0  0
   34.0597   31.9443   54.6762 H   0  0  0  0  0  0  0  0  0  0  0  0
   35.1521   33.0649   53.8283 H   0  0  0  0  0  0  0  0  0  0  0  0
   35.1568   32.9926   55.6067 H   0  0  0  0  0  0  0  0  0  0  0  0
   32.2962   35.3494   53.7470 H   0  0  0  0  0  0  0  0  0  0  0  0
   33.8111   34.9185   52.9179 H   0  0  0  0  0  0  0  0  0  0  0  0
   32.4565   33.7645   52.9529 H   0  0  0  0  0  0  0  0  0  0  0  0
   33.6248   36.4416   55.6619 H   0  0  0  0  0  0  0  0  0  0  0  0
   32.7694   37.2320   57.8185 H   0  0  0  0  0  0  0  0  0  0  0  0
   31.0261   39.8513   63.0750 H   0  0  0  0  0  0  0  0  0  0  0  0
  1  2  1  0  0  0  0
  1 21  1  0  0  0  0
  1 22  1  0  0  0  0
  1 23  1  0  0  0  0
  2  3  1  1  0  0  0
  2 19  1  0  0  0  0
  2  4  1  0  0  0  0
  4  5  1  0  0  0  0
  5  6  1  0  0  0  0
  5 17  2  0  0  0  0
  6  7  2  0  0  0  0
  7  8  1  0  0  0  0
  7 24  1  0  0  0  0
  8 16  2  0  0  0  0
  8  9  1  0  0  0  0
  9 10  2  0  0  0  0
  9 25  1  0  0  0  0
 10 11  1  0  0  0  0
 10 26  1  0  0  0  0
 11 12  1  0  0  0  0
 11 15  2  0  0  0  0
 12 13  1  0  0  0  0
 12 14  1  0  0  0  0
 13 27  1  0  0  0  0
 13 28  1  0  0  0  0
 13 29  1  0  0  0  0
 14 30  1  0  0  0  0
 14 31  1  0  0  0  0
 14 32  1  0  0  0  0
 15 16  1  0  0  0  0
 15 33  1  0  0  0  0
 16 34  1  0  0  0  0
 17 18  1  0  0  0  0
 18 19  1  0  0  0  0
 18 35  1  0  0  0  0
 19 20  2  0  0  0  0
M  END
$$$$
