ZINC000000039797      none
 OpenBabel11202420153D

 21 22  0  0  0  0  0  0  0  0999 V2000
   32.3593   34.7688   62.2715 C   0  0  0  0  0  0  0  0  0  0  0  0
   31.1941   35.3531   61.4703 C   0  0  0  0  0  0  0  0  0  0  0  0
   31.7140   36.2544   60.4389 N   0  0  0  0  0  0  0  0  0  0  0  0
   31.8858   37.5552   60.6933 C   0  0  0  0  0  0  0  0  0  0  0  0
   31.6526   38.1332   61.7387 O   0  0  0  0  0  0  0  0  0  0  0  0
   32.5247   38.2672   59.2023 S   0  0  0  0  0  0  0  0  0  0  0  0
   32.5154   36.7459   58.2997 C   0  0  0  0  0  0  0  0  0  0  0  0
   32.8772   36.4295   57.0020 C   0  0  0  0  0  0  0  0  0  0  0  0
   32.7629   35.1286   56.5524 C   0  0  0  0  0  0  0  0  0  0  0  0
   32.2856   34.1515   57.4094 C   0  0  0  0  0  0  0  0  0  0  0  0
   31.9243   34.4616   58.7004 C   0  0  0  0  0  0  0  0  0  0  0  0
   31.3284   33.2127   59.7486 Cl  0  0  0  0  0  0  0  0  0  0  0  0
   32.0319   35.7775   59.1793 C   0  0  0  0  0  0  0  0  0  0  0  0
   32.9174   35.5775   62.7433 H   0  0  0  0  0  0  0  0  0  0  0  0
   31.9724   34.0983   63.0389 H   0  0  0  0  0  0  0  0  0  0  0  0
   33.0180   34.2145   61.6030 H   0  0  0  0  0  0  0  0  0  0  0  0
   30.5354   35.9074   62.1387 H   0  0  0  0  0  0  0  0  0  0  0  0
   30.6359   34.5445   60.9985 H   0  0  0  0  0  0  0  0  0  0  0  0
   33.2487   37.1990   56.3416 H   0  0  0  0  0  0  0  0  0  0  0  0
   33.0434   34.8755   55.5406 H   0  0  0  0  0  0  0  0  0  0  0  0
   32.1954   33.1336   57.0602 H   0  0  0  0  0  0  0  0  0  0  0  0
  1  2  1  0  0  0  0
  1 14  1  0  0  0  0
  1 15  1  0  0  0  0
  1 16  1  0  0  0  0
  2  3  1  0  0  0  0
  2 17  1  0  0  0  0
  2 18  1  0  0  0  0
  3 13  1  0  0  0  0
  3  4  1  0  0  0  0
  4  5  2  0  0  0  0
  4  6  1  0  0  0  0
  6  7  1  0  0  0  0
  7 13  2  0  0  0  0
  7  8  1  0  0  0  0
  8  9  2  0  0  0  0
  8 19  1  0  0  0  0
  9 10  1  0  0  0  0
  9 20  1  0  0  0  0
 10 11  2  0  0  0  0
 10 21  1  0  0  0  0
 11 12  1  0  0  0  0
 11 13  1  0  0  0  0
M  END
$$$$
