ZINC000000045197      none
 OpenBabel11202420153D

 39 41  0  0  0  0  0  0  0  0999 V2000
   32.7283   36.8178   64.6975 C   0  0  0  0  0  0  0  0  0  0  0  0
   31.5344   37.6676   65.0489 C   0  0  0  0  0  0  0  0  0  0  0  0
   31.1347   37.7872   66.3658 C   0  0  0  0  0  0  0  0  0  0  0  0
   30.0365   38.5623   66.6890 C   0  0  0  0  0  0  0  0  0  0  0  0
   29.3372   39.2252   65.6952 C   0  0  0  0  0  0  0  0  0  0  0  0
   27.9589   40.1975   66.1055 Cl  0  0  0  0  0  0  0  0  0  0  0  0
   29.7355   39.1131   64.3764 C   0  0  0  0  0  0  0  0  0  0  0  0
   30.8384   38.3350   64.0498 C   0  0  0  0  0  0  0  0  0  0  0  0
   31.2438   38.2189   62.7156 N   0  0  0  0  0  0  0  0  0  0  0  0
   30.3984   37.7135   61.7958 C   0  0  0  0  0  0  0  0  0  0  0  0
   29.2859   37.3591   62.1244 O   0  0  0  0  0  0  0  0  0  0  0  0
   30.8351   37.5886   60.3589 C   0  0  0  0  0  0  0  0  0  0  0  0
   32.0603   36.6760   60.2757 C   0  0  0  0  0  0  0  0  0  0  0  0
   32.4849   36.5546   58.8788 N   0  0  0  0  0  0  0  0  0  0  0  0
   32.5449   35.3951   58.1995 C   0  0  0  0  0  0  0  0  0  0  0  0
   32.2594   34.2999   58.6400 O   0  0  0  0  0  0  0  0  0  0  0  0
   33.0160   35.6772   56.8271 C   0  0  0  0  0  0  0  0  0  0  0  0
   33.2642   34.8963   55.7097 C   0  0  0  0  0  0  0  0  0  0  0  0
   33.7171   35.4912   54.5425 C   0  0  0  0  0  0  0  0  0  0  0  0
   33.9130   36.8582   54.4833 C   0  0  0  0  0  0  0  0  0  0  0  0
   33.6687   37.6519   55.5930 C   0  0  0  0  0  0  0  0  0  0  0  0
   33.2204   37.0704   56.7682 C   0  0  0  0  0  0  0  0  0  0  0  0
   32.8665   37.5881   58.1067 C   0  0  0  0  0  0  0  0  0  0  0  0
   32.9133   38.7515   58.4520 O   0  0  0  0  0  0  0  0  0  0  0  0
   33.6308   37.4282   64.7291 H   0  0  0  0  0  0  0  0  0  0  0  0
   32.8166   36.0013   65.4142 H   0  0  0  0  0  0  0  0  0  0  0  0
   32.6009   36.4092   63.6950 H   0  0  0  0  0  0  0  0  0  0  0  0
   31.6782   37.2712   67.1434 H   0  0  0  0  0  0  0  0  0  0  0  0
   29.7235   38.6504   67.7189 H   0  0  0  0  0  0  0  0  0  0  0  0
   29.1898   39.6304   63.6011 H   0  0  0  0  0  0  0  0  0  0  0  0
   32.1335   38.5024   62.4526 H   0  0  0  0  0  0  0  0  0  0  0  0
   31.0893   38.5744   59.9694 H   0  0  0  0  0  0  0  0  0  0  0  0
   30.0240   37.1627   59.7683 H   0  0  0  0  0  0  0  0  0  0  0  0
   31.8061   35.6902   60.6652 H   0  0  0  0  0  0  0  0  0  0  0  0
   32.8715   37.1019   60.8663 H   0  0  0  0  0  0  0  0  0  0  0  0
   33.1097   33.8281   55.7492 H   0  0  0  0  0  0  0  0  0  0  0  0
   33.9150   34.8829   53.6723 H   0  0  0  0  0  0  0  0  0  0  0  0
   34.2625   37.3106   53.5669 H   0  0  0  0  0  0  0  0  0  0  0  0
   33.8274   38.7189   55.5422 H   0  0  0  0  0  0  0  0  0  0  0  0
  1  2  1  0  0  0  0
  1 25  1  0  0  0  0
  1 26  1  0  0  0  0
  1 27  1  0  0  0  0
  2  8  2  0  0  0  0
  2  3  1  0  0  0  0
  3  4  2  0  0  0  0
  3 28  1  0  0  0  0
  4  5  1  0  0  0  0
  4 29  1  0  0  0  0
  5  6  1  0  0  0  0
  5  7  2  0  0  0  0
  7  8  1  0  0  0  0
  7 30  1  0  0  0  0
  8  9  1  0  0  0  0
  9 10  1  0  0  0  0
  9 31  1  0  0  0  0
 10 11  2  0  0  0  0
 10 12  1  0  0  0  0
 12 13  1  0  0  0  0
 12 32  1  0  0  0  0
 12 33  1  0  0  0  0
 13 14  1  0  0  0  0
 13 34  1  0  0  0  0
 13 35  1  0  0  0  0
 14 23  1  0  0  0  0
 14 15  1  0  0  0  0
 15 16  2  0  0  0  0
 15 17  1  0  0  0  0
 17 22  2  0  0  0  0
 17 18  1  0  0  0  0
 18 19  2  0  0  0  0
 18 36  1  0  0  0  0
 19 20  1  0  0  0  0
 19 37  1  0  0  0  0
 20 21  2  0  0  0  0
 20 38  1  0  0  0  0
 21 22  1  0  0  0  0
 21 39  1  0  0  0  0
 22 23  1  0  0  0  0
 23 24  2  0  0  0  0
M  END
$$$$
