ZINC000000035856      none
 OpenBabel11202420153D

 22 22  0  0  0  0  0  0  0  0999 V2000
   34.9230   32.9890   55.0752 C   0  0  0  0  0  0  0  0  0  0  0  0
   34.5275   34.4175   54.6962 C   0  0  0  0  0  0  0  0  0  0  0  0
   34.3448   35.2054   55.9021 O   0  0  0  0  0  0  0  0  0  0  0  0
   33.1140   35.2241   56.4371 C   0  0  0  0  0  0  0  0  0  0  0  0
   32.2188   34.6028   55.9151 O   0  0  0  0  0  0  0  0  0  0  0  0
   32.8484   36.0200   57.6889 C   0  0  0  0  0  0  0  0  0  0  0  0
   33.1573   37.4731   57.4354 C   0  0  0  0  0  0  0  0  0  0  0  0
   33.6008   37.9211   56.2607 C   0  0  0  0  0  0  0  0  0  0  0  0
   33.8331   39.6624   56.3912 S   0  0  0  0  0  0  0  0  0  0  0  0
   33.3097   39.6209   58.0182 C   0  0  0  0  0  0  0  0  0  0  0  0
   33.2188   40.7249   58.8516 N   0  0  0  0  0  0  0  0  0  0  0  0
   33.0153   38.4053   58.3609 N   0  0  0  0  0  0  0  0  0  0  0  0
   35.0602   32.3976   54.1699 H   0  0  0  0  0  0  0  0  0  0  0  0
   35.8543   33.0080   55.6413 H   0  0  0  0  0  0  0  0  0  0  0  0
   34.1365   32.5438   55.6845 H   0  0  0  0  0  0  0  0  0  0  0  0
   33.5962   34.3986   54.1301 H   0  0  0  0  0  0  0  0  0  0  0  0
   35.3140   34.8628   54.0870 H   0  0  0  0  0  0  0  0  0  0  0  0
   33.4808   35.6497   58.4959 H   0  0  0  0  0  0  0  0  0  0  0  0
   31.8008   35.9151   57.9710 H   0  0  0  0  0  0  0  0  0  0  0  0
   33.7857   37.3209   55.3819 H   0  0  0  0  0  0  0  0  0  0  0  0
   33.4620   41.6035   58.5207 H   0  0  0  0  0  0  0  0  0  0  0  0
   32.9083   40.6191   59.7645 H   0  0  0  0  0  0  0  0  0  0  0  0
  1  2  1  0  0  0  0
  1 13  1  0  0  0  0
  1 14  1  0  0  0  0
  1 15  1  0  0  0  0
  2  3  1  0  0  0  0
  2 16  1  0  0  0  0
  2 17  1  0  0  0  0
  3  4  1  0  0  0  0
  4  5  2  0  0  0  0
  4  6  1  0  0  0  0
  6  7  1  0  0  0  0
  6 18  1  0  0  0  0
  6 19  1  0  0  0  0
  7 12  1  0  0  0  0
  7  8  2  0  0  0  0
  8  9  1  0  0  0  0
  8 20  1  0  0  0  0
  9 10  1  0  0  0  0
 10 11  1  0  0  0  0
 10 12  2  0  0  0  0
 11 21  1  0  0  0  0
 11 22  1  0  0  0  0
M  END
$$$$
