ZINC000000030554      none
 OpenBabel11202420163D

 42 43  0  0  1  0  0  0  0  0999 V2000
   35.1195   31.5006   54.7797 C   0  0  0  0  0  0  0  0  0  0  0  0
   34.3243   32.5024   53.9399 C   0  0  0  0  0  0  0  0  0  0  0  0
   34.5672   33.9175   54.4688 C   0  0  2  0  0  0  0  0  0  0  0  0
   35.6298   34.1519   54.4044 H   0  0  0  0  0  0  0  0  0  0  0  0
   34.1207   34.0002   55.9056 C   0  0  0  0  0  0  0  0  0  0  0  0
   34.9024   33.7506   56.7988 O   0  0  0  0  0  0  0  0  0  0  0  0
   32.8529   34.3516   56.1983 N   0  0  0  0  0  0  0  0  0  0  0  0
   32.4189   34.4319   57.5953 C   0  0  0  0  0  0  0  0  0  0  0  0
   32.6584   35.8255   58.1163 C   0  0  0  0  0  0  0  0  0  0  0  0
   33.2109   36.7866   57.2915 C   0  0  0  0  0  0  0  0  0  0  0  0
   33.4358   38.0638   57.7704 C   0  0  0  0  0  0  0  0  0  0  0  0
   33.0978   38.3861   59.0721 C   0  0  0  0  0  0  0  0  0  0  0  0
   32.5452   37.4289   59.9006 C   0  0  0  0  0  0  0  0  0  0  0  0
   32.3239   36.1447   59.4240 C   0  0  0  0  0  0  0  0  0  0  0  0
   31.7798   35.2015   60.2371 O   0  0  0  0  0  0  0  0  0  0  0  0
   31.4603   35.6011   61.5713 C   0  0  0  0  0  0  0  0  0  0  0  0
   33.7842   34.9042   53.6417 C   0  0  0  0  0  0  0  0  0  0  0  0
   34.2533   36.1941   53.4771 C   0  0  0  0  0  0  0  0  0  0  0  0
   33.5372   37.0979   52.7150 C   0  0  0  0  0  0  0  0  0  0  0  0
   32.3474   36.7146   52.1246 C   0  0  0  0  0  0  0  0  0  0  0  0
   31.8757   35.4263   52.2934 C   0  0  0  0  0  0  0  0  0  0  0  0
   32.5940   34.5211   53.0522 C   0  0  0  0  0  0  0  0  0  0  0  0
   36.1821   31.7351   54.7153 H   0  0  0  0  0  0  0  0  0  0  0  0
   34.7964   31.5605   55.8189 H   0  0  0  0  0  0  0  0  0  0  0  0
   34.9464   30.4925   54.4028 H   0  0  0  0  0  0  0  0  0  0  0  0
   33.2619   32.2680   54.0043 H   0  0  0  0  0  0  0  0  0  0  0  0
   34.6474   32.4426   52.9005 H   0  0  0  0  0  0  0  0  0  0  0  0
   32.2278   34.5512   55.4840 H   0  0  0  0  0  0  0  0  0  0  0  0
   32.9853   33.7181   58.1933 H   0  0  0  0  0  0  0  0  0  0  0  0
   31.3563   34.1975   57.6595 H   0  0  0  0  0  0  0  0  0  0  0  0
   33.4716   36.5385   56.2732 H   0  0  0  0  0  0  0  0  0  0  0  0
   33.8721   38.8123   57.1256 H   0  0  0  0  0  0  0  0  0  0  0  0
   33.2699   39.3859   59.4424 H   0  0  0  0  0  0  0  0  0  0  0  0
   32.2852   37.6801   60.9183 H   0  0  0  0  0  0  0  0  0  0  0  0
   32.3659   35.9364   62.0768 H   0  0  0  0  0  0  0  0  0  0  0  0
   30.7369   36.4159   61.5432 H   0  0  0  0  0  0  0  0  0  0  0  0
   31.0345   34.7556   62.1117 H   0  0  0  0  0  0  0  0  0  0  0  0
   35.1809   36.4946   53.9414 H   0  0  0  0  0  0  0  0  0  0  0  0
   33.9059   38.1044   52.5828 H   0  0  0  0  0  0  0  0  0  0  0  0
   31.7866   37.4216   51.5312 H   0  0  0  0  0  0  0  0  0  0  0  0
   30.9462   35.1268   51.8323 H   0  0  0  0  0  0  0  0  0  0  0  0
   32.2255   33.5145   53.1841 H   0  0  0  0  0  0  0  0  0  0  0  0
  1  2  1  0  0  0  0
  1 23  1  0  0  0  0
  1 24  1  0  0  0  0
  1 25  1  0  0  0  0
  2  3  1  0  0  0  0
  2 26  1  0  0  0  0
  2 27  1  0  0  0  0
  3  4  1  6  0  0  0
  3  5  1  0  0  0  0
  3 17  1  0  0  0  0
  5  6  2  0  0  0  0
  5  7  1  0  0  0  0
  7  8  1  0  0  0  0
  7 28  1  0  0  0  0
  8  9  1  0  0  0  0
  8 29  1  0  0  0  0
  8 30  1  0  0  0  0
  9 14  2  0  0  0  0
  9 10  1  0  0  0  0
 10 11  2  0  0  0  0
 10 31  1  0  0  0  0
 11 12  1  0  0  0  0
 11 32  1  0  0  0  0
 12 13  2  0  0  0  0
 12 33  1  0  0  0  0
 13 14  1  0  0  0  0
 13 34  1  0  0  0  0
 14 15  1  0  0  0  0
 15 16  1  0  0  0  0
 16 35  1  0  0  0  0
 16 36  1  0  0  0  0
 16 37  1  0  0  0  0
 17 22  2  0  0  0  0
 17 18  1  0  0  0  0
 18 19  2  0  0  0  0
 18 38  1  0  0  0  0
 19 20  1  0  0  0  0
 19 39  1  0  0  0  0
 20 21  2  0  0  0  0
 20 40  1  0  0  0  0
 21 22  1  0  0  0  0
 21 41  1  0  0  0  0
 22 42  1  0  0  0  0
M  END
$$$$
