ZINC000000034241      none
 OpenBabel11202420153D

 29 31  0  0  0  0  0  0  0  0999 V2000
   31.5755   35.4546   60.9114 O   0  0  0  0  0  0  0  0  0  0  0  0
   31.8736   36.3260   60.1182 C   0  0  0  0  0  0  0  0  0  0  0  0
   31.6470   37.8039   60.3666 C   0  0  0  0  0  0  0  0  0  0  0  0
   32.2987   38.5618   58.8396 S   0  0  0  0  0  0  0  0  0  0  0  0
   32.7343   37.0569   58.1245 C   0  0  0  0  0  0  0  0  0  0  0  0
   33.3139   36.8954   56.8913 N   0  0  0  0  0  0  0  0  0  0  0  0
   33.5888   37.9727   56.1297 C   0  0  0  0  0  0  0  0  0  0  0  0
   33.3239   39.0846   56.5341 O   0  0  0  0  0  0  0  0  0  0  0  0
   34.2198   37.7949   54.7726 C   0  0  0  0  0  0  0  0  0  0  0  0
   33.1355   36.7877   53.7305 S   0  0  0  0  0  0  0  0  0  0  0  0
   33.7494   35.1810   54.1133 C   0  0  0  0  0  0  0  0  0  0  0  0
   34.2814   34.8340   55.2584 N   0  0  0  0  0  0  0  0  0  0  0  0
   34.6396   33.5226   55.1933 C   0  0  0  0  0  0  0  0  0  0  0  0
   35.2363   32.6409   56.0958 C   0  0  0  0  0  0  0  0  0  0  0  0
   35.4757   31.3372   55.7206 C   0  0  0  0  0  0  0  0  0  0  0  0
   35.1274   30.8970   54.4528 C   0  0  0  0  0  0  0  0  0  0  0  0
   34.5366   31.7587   53.5506 C   0  0  0  0  0  0  0  0  0  0  0  0
   34.2888   33.0730   53.9115 C   0  0  0  0  0  0  0  0  0  0  0  0
   33.7349   34.1301   53.2740 O   0  0  0  0  0  0  0  0  0  0  0  0
   32.4257   36.0923   58.9556 N   0  0  0  0  0  0  0  0  0  0  0  0
   30.5849   38.0181   60.4870 H   0  0  0  0  0  0  0  0  0  0  0  0
   32.2097   38.1413   61.2370 H   0  0  0  0  0  0  0  0  0  0  0  0
   33.5259   36.0058   56.5679 H   0  0  0  0  0  0  0  0  0  0  0  0
   34.3655   38.7705   54.3091 H   0  0  0  0  0  0  0  0  0  0  0  0
   35.1832   37.2972   54.8823 H   0  0  0  0  0  0  0  0  0  0  0  0
   35.5096   32.9796   57.0844 H   0  0  0  0  0  0  0  0  0  0  0  0
   35.9377   30.6540   56.4179 H   0  0  0  0  0  0  0  0  0  0  0  0
   35.3193   29.8727   54.1693 H   0  0  0  0  0  0  0  0  0  0  0  0
   34.2677   31.4086   52.5650 H   0  0  0  0  0  0  0  0  0  0  0  0
  1  2  2  0  0  0  0
  2 20  1  0  0  0  0
  2  3  1  0  0  0  0
  3  4  1  0  0  0  0
  3 21  1  0  0  0  0
  3 22  1  0  0  0  0
  4  5  1  0  0  0  0
  5  6  1  0  0  0  0
  5 20  2  0  0  0  0
  6  7  1  0  0  0  0
  6 23  1  0  0  0  0
  7  8  2  0  0  0  0
  7  9  1  0  0  0  0
  9 10  1  0  0  0  0
  9 24  1  0  0  0  0
  9 25  1  0  0  0  0
 10 11  1  0  0  0  0
 11 19  1  0  0  0  0
 11 12  2  0  0  0  0
 12 13  1  0  0  0  0
 13 18  2  0  0  0  0
 13 14  1  0  0  0  0
 14 15  2  0  0  0  0
 14 26  1  0  0  0  0
 15 16  1  0  0  0  0
 15 27  1  0  0  0  0
 16 17  2  0  0  0  0
 16 28  1  0  0  0  0
 17 18  1  0  0  0  0
 17 29  1  0  0  0  0
 18 19  1  0  0  0  0
M  END
$$$$
