ZINC000000042383      none
 OpenBabel11202420153D

 17 17  0  0  0  0  0  0  0  0999 V2000
   34.6353   33.1022   55.6893 C   0  0  0  0  0  0  0  0  0  0  0  0
   33.5053   34.1846   54.7717 S   0  0  0  0  0  0  0  0  0  0  0  0
   33.4260   35.6244   55.7841 C   0  0  0  0  0  0  0  0  0  0  0  0
   32.8661   35.6607   57.4506 S   0  0  0  0  0  0  0  0  0  0  0  0
   33.1526   37.3931   57.5451 C   0  0  0  0  0  0  0  0  0  0  0  0
   32.8541   38.3948   58.9636 S   0  0  0  0  0  0  0  0  0  0  0  0
   31.0759   38.1783   59.2491 C   0  0  0  0  0  0  0  0  0  0  0  0
   33.6315   37.8358   56.3755 C   0  0  0  0  0  0  0  0  0  0  0  0
   34.0747   39.6496   56.0764 Br  0  0  0  0  0  0  0  0  0  0  0  0
   33.7828   36.8568   55.4009 C   0  0  0  0  0  0  0  0  0  0  0  0
   34.4416   37.2355   53.6693 Br  0  0  0  0  0  0  0  0  0  0  0  0
   35.6026   33.5933   55.7958 H   0  0  0  0  0  0  0  0  0  0  0  0
   34.2210   32.8978   56.6766 H   0  0  0  0  0  0  0  0  0  0  0  0
   34.7613   32.1651   55.1471 H   0  0  0  0  0  0  0  0  0  0  0  0
   30.5232   38.5175   58.3729 H   0  0  0  0  0  0  0  0  0  0  0  0
   30.8622   37.1245   59.4278 H   0  0  0  0  0  0  0  0  0  0  0  0
   30.7735   38.7629   60.1181 H   0  0  0  0  0  0  0  0  0  0  0  0
  1  2  1  0  0  0  0
  1 12  1  0  0  0  0
  1 13  1  0  0  0  0
  1 14  1  0  0  0  0
  2  3  1  0  0  0  0
  3 10  2  0  0  0  0
  3  4  1  0  0  0  0
  4  5  1  0  0  0  0
  5  6  1  0  0  0  0
  5  8  2  0  0  0  0
  6  7  1  0  0  0  0
  7 15  1  0  0  0  0
  7 16  1  0  0  0  0
  7 17  1  0  0  0  0
  8  9  1  0  0  0  0
  8 10  1  0  0  0  0
 10 11  1  0  0  0  0
M  END
$$$$
