ZINC000000032434      none
 OpenBabel11202420153D

 33 36  0  0  0  0  0  0  0  0999 V2000
   31.9065   40.1772   65.9093 N   0  0  0  0  0  0  0  0  0  0  0  0
   31.6869   39.0295   65.1702 C   0  0  0  0  0  0  0  0  0  0  0  0
   31.4249   38.9997   63.8995 N   0  0  0  0  0  0  0  0  0  0  0  0
   31.2407   37.8112   63.3462 C   0  0  0  0  0  0  0  0  0  0  0  0
   30.9365   37.6391   61.9134 C   0  0  0  0  0  0  0  0  0  0  0  0
   29.8213   37.0627   61.4168 C   0  0  0  0  0  0  0  0  0  0  0  0
   29.7613   37.0173   60.0394 C   0  0  0  0  0  0  0  0  0  0  0  0
   30.8126   37.5490   59.4089 C   0  0  0  0  0  0  0  0  0  0  0  0
   31.9668   38.1602   60.5865 S   0  0  0  0  0  0  0  0  0  0  0  0
   31.3549   36.7501   64.2125 C   0  0  0  0  0  0  0  0  0  0  0  0
   31.1983   35.3303   63.8653 C   0  0  0  0  0  0  0  0  0  0  0  0
   32.0275   34.7341   62.9206 C   0  0  0  0  0  0  0  0  0  0  0  0
   31.8771   33.3938   62.5957 C   0  0  0  0  0  0  0  0  0  0  0  0
   30.9243   32.6153   63.1793 C   0  0  0  0  0  0  0  0  0  0  0  0
   30.0515   33.1503   64.1416 C   0  0  0  0  0  0  0  0  0  0  0  0
   29.0630   32.3590   64.7520 C   0  0  0  0  0  0  0  0  0  0  0  0
   28.2352   32.9134   65.6801 C   0  0  0  0  0  0  0  0  0  0  0  0
   28.3516   34.2551   66.0349 C   0  0  0  0  0  0  0  0  0  0  0  0
   29.2991   35.0512   65.4625 C   0  0  0  0  0  0  0  0  0  0  0  0
   30.1673   34.5143   64.5051 C   0  0  0  0  0  0  0  0  0  0  0  0
   31.7142   37.3913   65.8140 S   0  0  0  0  0  0  0  0  0  0  0  0
   31.8705   41.0456   65.4787 H   0  0  0  0  0  0  0  0  0  0  0  0
   32.0968   40.1138   66.8584 H   0  0  0  0  0  0  0  0  0  0  0  0
   29.0382   36.6686   62.0477 H   0  0  0  0  0  0  0  0  0  0  0  0
   28.9259   36.5842   59.5095 H   0  0  0  0  0  0  0  0  0  0  0  0
   30.9332   37.5998   58.3369 H   0  0  0  0  0  0  0  0  0  0  0  0
   32.7950   35.3196   62.4361 H   0  0  0  0  0  0  0  0  0  0  0  0
   32.5340   32.9555   61.8589 H   0  0  0  0  0  0  0  0  0  0  0  0
   30.8391   31.5755   62.8999 H   0  0  0  0  0  0  0  0  0  0  0  0
   28.9607   31.3172   64.4863 H   0  0  0  0  0  0  0  0  0  0  0  0
   27.4765   32.3035   66.1478 H   0  0  0  0  0  0  0  0  0  0  0  0
   27.6793   34.6719   66.7701 H   0  0  0  0  0  0  0  0  0  0  0  0
   29.3794   36.0900   65.7466 H   0  0  0  0  0  0  0  0  0  0  0  0
  1  2  1  0  0  0  0
  1 22  1  0  0  0  0
  1 23  1  0  0  0  0
  2 21  1  0  0  0  0
  2  3  2  0  0  0  0
  3  4  1  0  0  0  0
  4  5  1  0  0  0  0
  4 10  2  0  0  0  0
  5  9  1  0  0  0  0
  5  6  2  0  0  0  0
  6  7  1  0  0  0  0
  6 24  1  0  0  0  0
  7  8  2  0  0  0  0
  7 25  1  0  0  0  0
  8  9  1  0  0  0  0
  8 26  1  0  0  0  0
 10 11  1  0  0  0  0
 10 21  1  0  0  0  0
 11 20  2  0  0  0  0
 11 12  1  0  0  0  0
 12 13  2  0  0  0  0
 12 27  1  0  0  0  0
 13 14  1  0  0  0  0
 13 28  1  0  0  0  0
 14 15  2  0  0  0  0
 14 29  1  0  0  0  0
 15 20  1  0  0  0  0
 15 16  1  0  0  0  0
 16 17  2  0  0  0  0
 16 30  1  0  0  0  0
 17 18  1  0  0  0  0
 17 31  1  0  0  0  0
 18 19  2  0  0  0  0
 18 32  1  0  0  0  0
 19 20  1  0  0  0  0
 19 33  1  0  0  0  0
M  END
$$$$
