ZINC000000040123      none
 OpenBabel11202420153D

 26 27  0  0  0  0  0  0  0  0999 V2000
   31.9712   33.8486   58.7428 C   0  0  0  0  0  0  0  0  0  0  0  0
   31.9779   35.2345   59.3911 C   0  0  0  0  0  0  0  0  0  0  0  0
   32.5663   36.2044   58.4641 N   0  0  0  0  0  0  0  0  0  0  0  0
   32.6808   37.5485   58.8372 C   0  0  0  0  0  0  0  0  0  0  0  0
   33.1874   38.5473   58.1036 N   0  0  0  0  0  0  0  0  0  0  0  0
   33.1257   39.6423   58.7727 N   0  0  0  0  0  0  0  0  0  0  0  0
   32.6087   39.4442   59.9340 N   0  0  0  0  0  0  0  0  0  0  0  0
   32.4640   40.1189   60.6156 H   0  0  0  0  0  0  0  0  0  0  0  0
   32.2989   38.1127   60.0405 C   0  0  0  0  0  0  0  0  0  0  0  0
   31.6870   37.4257   61.1974 C   0  0  0  0  0  0  0  0  0  0  0  0
   30.2985   37.3236   61.2978 C   0  0  0  0  0  0  0  0  0  0  0  0
   29.7339   36.6763   62.3775 C   0  0  0  0  0  0  0  0  0  0  0  0
   30.5405   36.1383   63.3646 C   0  0  0  0  0  0  0  0  0  0  0  0
   31.9173   36.2411   63.2739 C   0  0  0  0  0  0  0  0  0  0  0  0
   32.4948   36.8812   62.1969 C   0  0  0  0  0  0  0  0  0  0  0  0
   31.3818   33.8791   57.8263 H   0  0  0  0  0  0  0  0  0  0  0  0
   32.9936   33.5525   58.5077 H   0  0  0  0  0  0  0  0  0  0  0  0
   31.5334   33.1270   59.4325 H   0  0  0  0  0  0  0  0  0  0  0  0
   32.5672   35.2041   60.3075 H   0  0  0  0  0  0  0  0  0  0  0  0
   30.9555   35.5305   59.6261 H   0  0  0  0  0  0  0  0  0  0  0  0
   32.8727   35.9159   57.5902 H   0  0  0  0  0  0  0  0  0  0  0  0
   29.6678   37.7469   60.5303 H   0  0  0  0  0  0  0  0  0  0  0  0
   28.6599   36.5930   62.4543 H   0  0  0  0  0  0  0  0  0  0  0  0
   30.0933   35.6364   64.2099 H   0  0  0  0  0  0  0  0  0  0  0  0
   32.5412   35.8190   64.0479 H   0  0  0  0  0  0  0  0  0  0  0  0
   33.5697   36.9604   62.1272 H   0  0  0  0  0  0  0  0  0  0  0  0
  1  2  1  0  0  0  0
  1 16  1  0  0  0  0
  1 17  1  0  0  0  0
  1 18  1  0  0  0  0
  2  3  1  0  0  0  0
  2 19  1  0  0  0  0
  2 20  1  0  0  0  0
  3  4  1  0  0  0  0
  3 21  1  0  0  0  0
  4  9  2  0  0  0  0
  4  5  1  0  0  0  0
  5  6  2  0  0  0  0
  6  7  1  0  0  0  0
  7  8  1  0  0  0  0
  7  9  1  0  0  0  0
  9 10  1  0  0  0  0
 10 15  2  0  0  0  0
 10 11  1  0  0  0  0
 11 12  2  0  0  0  0
 11 22  1  0  0  0  0
 12 13  1  0  0  0  0
 12 23  1  0  0  0  0
 13 14  2  0  0  0  0
 13 24  1  0  0  0  0
 14 15  1  0  0  0  0
 14 25  1  0  0  0  0
 15 26  1  0  0  0  0
M  END
$$$$
