ZINC000000006045      none
 OpenBabel11202420153D

 34 35  0  0  0  0  0  0  0  0999 V2000
   32.5471   33.5714   60.2393 C   0  0  0  0  0  0  0  0  0  0  0  0
   32.4044   33.9996   61.5952 O   0  0  0  0  0  0  0  0  0  0  0  0
   31.6448   35.1047   61.8165 C   0  0  0  0  0  0  0  0  0  0  0  0
   31.0570   35.7613   60.7433 C   0  0  0  0  0  0  0  0  0  0  0  0
   30.2894   36.8902   60.9730 C   0  0  0  0  0  0  0  0  0  0  0  0
   30.1119   37.3534   62.2532 C   0  0  0  0  0  0  0  0  0  0  0  0
   30.6907   36.7144   63.3534 C   0  0  0  0  0  0  0  0  0  0  0  0
   31.4700   35.5667   63.1045 C   0  0  0  0  0  0  0  0  0  0  0  0
   30.3913   37.3528   64.6398 C   0  0  0  0  0  0  0  0  0  0  0  0
   30.8761   36.8563   65.8001 O   0  0  0  0  0  0  0  0  0  0  0  0
   32.1451   37.3476   66.2361 C   0  0  0  0  0  0  0  0  0  0  0  0
   32.5258   36.6758   67.5569 C   0  0  0  0  0  0  0  0  0  0  0  0
   33.2051   37.0315   65.1789 C   0  0  0  0  0  0  0  0  0  0  0  0
   29.6122   38.4555   64.6195 C   0  0  0  0  0  0  0  0  0  0  0  0
   29.1980   39.2283   65.7268 C   0  0  0  0  0  0  0  0  0  0  0  0
   29.5859   38.8852   66.9712 N   0  0  0  0  0  0  0  0  0  0  0  0
   28.4901   40.2048   65.5572 O   0  0  0  0  0  0  0  0  0  0  0  0
   29.2182   38.7316   62.9130 S   0  0  1  0  0  0  0  0  0  0  0  0
   30.0400   39.8391   62.5703 O   0  0  0  0  0  0  0  0  0  0  0  0
   33.0091   34.3663   59.6538 H   0  0  0  0  0  0  0  0  0  0  0  0
   33.1757   32.6816   60.2035 H   0  0  0  0  0  0  0  0  0  0  0  0
   31.5654   33.3396   59.8263 H   0  0  0  0  0  0  0  0  0  0  0  0
   31.1977   35.3943   59.7373 H   0  0  0  0  0  0  0  0  0  0  0  0
   29.8289   37.4070   60.1440 H   0  0  0  0  0  0  0  0  0  0  0  0
   31.9336   35.0446   63.9285 H   0  0  0  0  0  0  0  0  0  0  0  0
   32.0868   38.4264   66.3808 H   0  0  0  0  0  0  0  0  0  0  0  0
   31.7708   36.9011   68.3100 H   0  0  0  0  0  0  0  0  0  0  0  0
   32.5842   35.5970   67.4121 H   0  0  0  0  0  0  0  0  0  0  0  0
   33.4938   37.0506   67.8895 H   0  0  0  0  0  0  0  0  0  0  0  0
   32.9339   37.5102   64.2379 H   0  0  0  0  0  0  0  0  0  0  0  0
   34.1730   37.4063   65.5115 H   0  0  0  0  0  0  0  0  0  0  0  0
   33.2633   35.9527   65.0342 H   0  0  0  0  0  0  0  0  0  0  0  0
   30.1496   38.1074   67.1063 H   0  0  0  0  0  0  0  0  0  0  0  0
   29.3013   39.4160   67.7316 H   0  0  0  0  0  0  0  0  0  0  0  0
  1  2  1  0  0  0  0
  1 20  1  0  0  0  0
  1 21  1  0  0  0  0
  1 22  1  0  0  0  0
  2  3  1  0  0  0  0
  3  8  2  0  0  0  0
  3  4  1  0  0  0  0
  4  5  2  0  0  0  0
  4 23  1  0  0  0  0
  5  6  1  0  0  0  0
  5 24  1  0  0  0  0
  6 18  1  0  0  0  0
  6  7  2  0  0  0  0
  7  8  1  0  0  0  0
  7  9  1  0  0  0  0
  8 25  1  0  0  0  0
  9 10  1  0  0  0  0
  9 14  2  0  0  0  0
 10 11  1  0  0  0  0
 11 12  1  0  0  0  0
 11 13  1  0  0  0  0
 11 26  1  0  0  0  0
 12 27  1  0  0  0  0
 12 28  1  0  0  0  0
 12 29  1  0  0  0  0
 13 30  1  0  0  0  0
 13 31  1  0  0  0  0
 13 32  1  0  0  0  0
 14 15  1  0  0  0  0
 14 18  1  0  0  0  0
 15 16  1  0  0  0  0
 15 17  2  0  0  0  0
 16 33  1  0  0  0  0
 16 34  1  0  0  0  0
 18 19  2  6  0  0  0
M  END
$$$$
