ZINC000000019037      none
 OpenBabel11202420153D

 27 27  0  0  1  0  0  0  0  0999 V2000
   31.1890   39.1382   64.8531 C   0  0  0  0  0  0  0  0  0  0  0  0
   30.3260   37.9994   64.3057 C   0  0  1  0  0  0  0  0  0  0  0  0
   29.3519   38.3905   64.0121 H   0  0  0  0  0  0  0  0  0  0  0  0
   30.9865   37.4026   63.1372 N   0  3  0  0  0  0  0  0  0  0  0  0
   30.6150   36.4783   62.9763 H   0  0  0  0  0  0  0  0  0  0  0  0
   31.9793   37.3413   63.3068 H   0  0  0  0  0  0  0  0  0  0  0  0
   30.7426   38.2408   61.9557 C   0  0  0  0  0  0  0  0  0  0  0  0
   31.4201   37.6287   60.7568 C   0  0  0  0  0  0  0  0  0  0  0  0
   32.1535   38.4231   59.8966 C   0  0  0  0  0  0  0  0  0  0  0  0
   32.7703   37.8632   58.7933 C   0  0  0  0  0  0  0  0  0  0  0  0
   32.6605   36.5061   58.5514 C   0  0  0  0  0  0  0  0  0  0  0  0
   31.9341   35.7065   59.4121 C   0  0  0  0  0  0  0  0  0  0  0  0
   31.3137   36.2661   60.5198 C   0  0  0  0  0  0  0  0  0  0  0  0
   30.5984   35.4815   61.3681 O   0  0  0  0  0  0  0  0  0  0  0  0
   30.1453   36.9493   65.3714 C   0  0  0  0  0  0  0  0  0  0  0  0
   29.9981   35.7806   65.0567 O   0  0  0  0  0  0  0  0  0  0  0  0
   30.1461   37.2683   66.5481 O   0  0  0  0  0  1  0  0  0  0  0  0
   32.1630   38.7470   65.1467 H   0  0  0  0  0  0  0  0  0  0  0  0
   31.3196   39.8977   64.0823 H   0  0  0  0  0  0  0  0  0  0  0  0
   30.6988   39.5809   65.7201 H   0  0  0  0  0  0  0  0  0  0  0  0
   31.1438   39.2394   62.1294 H   0  0  0  0  0  0  0  0  0  0  0  0
   29.6701   38.3071   61.7725 H   0  0  0  0  0  0  0  0  0  0  0  0
   32.2410   39.4832   60.0835 H   0  0  0  0  0  0  0  0  0  0  0  0
   33.3391   38.4866   58.1193 H   0  0  0  0  0  0  0  0  0  0  0  0
   33.1435   36.0710   57.6890 H   0  0  0  0  0  0  0  0  0  0  0  0
   31.8492   34.6466   59.2231 H   0  0  0  0  0  0  0  0  0  0  0  0
   30.5821   34.5470   61.1203 H   0  0  0  0  0  0  0  0  0  0  0  0
  1  2  1  0  0  0  0
  1 18  1  0  0  0  0
  1 19  1  0  0  0  0
  1 20  1  0  0  0  0
  2  3  1  6  0  0  0
  2  4  1  0  0  0  0
  2 15  1  0  0  0  0
  4  5  1  0  0  0  0
  4  6  1  0  0  0  0
  4  7  1  0  0  0  0
  7  8  1  0  0  0  0
  7 21  1  0  0  0  0
  7 22  1  0  0  0  0
  8 13  2  0  0  0  0
  8  9  1  0  0  0  0
  9 10  2  0  0  0  0
  9 23  1  0  0  0  0
 10 11  1  0  0  0  0
 10 24  1  0  0  0  0
 11 12  2  0  0  0  0
 11 25  1  0  0  0  0
 12 13  1  0  0  0  0
 12 26  1  0  0  0  0
 13 14  1  0  0  0  0
 14 27  1  0  0  0  0
 15 16  2  0  0  0  0
 15 17  1  0  0  0  0
M  CHG  1   4   1
M  END
$$$$
