ZINC000000017073      none
 OpenBabel11202420153D

 36 38  0  0  0  0  0  0  0  0999 V2000
   31.3372   34.2765   62.7660 O   0  0  0  0  0  0  0  0  0  0  0  0
   31.3822   35.4910   62.7893 C   0  0  0  0  0  0  0  0  0  0  0  0
   31.7311   36.1939   64.0422 C   0  0  0  0  0  0  0  0  0  0  0  0
   30.7286   36.5699   64.9375 C   0  0  0  0  0  0  0  0  0  0  0  0
   31.0614   37.2211   66.1074 C   0  0  0  0  0  0  0  0  0  0  0  0
   32.3847   37.5112   66.3887 C   0  0  0  0  0  0  0  0  0  0  0  0
   33.3828   37.1465   65.5028 C   0  0  0  0  0  0  0  0  0  0  0  0
   33.0640   36.4897   64.3321 C   0  0  0  0  0  0  0  0  0  0  0  0
   31.1141   36.1968   61.6728 N   0  0  0  0  0  0  0  0  0  0  0  0
   31.1586   37.6653   61.6867 C   0  0  0  0  0  0  0  0  0  0  0  0
   32.0840   38.1413   60.5626 C   0  0  0  0  0  0  0  0  0  0  0  0
   31.6187   37.5392   59.2348 C   0  0  0  0  0  0  0  0  0  0  0  0
   32.5064   38.0324   58.1214 C   0  0  0  0  0  0  0  0  0  0  0  0
   33.1466   39.2162   58.0696 C   0  0  0  0  0  0  0  0  0  0  0  0
   33.8317   39.2674   56.9177 N   0  0  0  0  0  0  0  0  0  0  0  0
   33.6337   38.1638   56.2497 C   0  0  0  0  0  0  0  0  0  0  0  0
   32.8124   37.3659   56.9656 N   0  0  0  0  0  0  0  0  0  0  0  0
   32.4979   36.4850   56.7088 H   0  0  0  0  0  0  0  0  0  0  0  0
   31.6958   36.0125   59.3100 C   0  0  0  0  0  0  0  0  0  0  0  0
   30.7660   35.5124   60.4200 C   0  0  0  0  0  0  0  0  0  0  0  0
   29.6948   36.3479   64.7169 H   0  0  0  0  0  0  0  0  0  0  0  0
   30.2870   37.5085   66.8032 H   0  0  0  0  0  0  0  0  0  0  0  0
   32.6395   38.0251   67.3038 H   0  0  0  0  0  0  0  0  0  0  0  0
   34.4138   37.3758   65.7283 H   0  0  0  0  0  0  0  0  0  0  0  0
   33.8441   36.2048   63.6417 H   0  0  0  0  0  0  0  0  0  0  0  0
   30.1562   38.0628   61.5278 H   0  0  0  0  0  0  0  0  0  0  0  0
   31.5427   38.0101   62.6469 H   0  0  0  0  0  0  0  0  0  0  0  0
   33.1044   37.8192   60.7703 H   0  0  0  0  0  0  0  0  0  0  0  0
   32.0517   39.2290   60.5000 H   0  0  0  0  0  0  0  0  0  0  0  0
   30.5898   37.8417   59.0400 H   0  0  0  0  0  0  0  0  0  0  0  0
   33.1158   39.9878   58.8245 H   0  0  0  0  0  0  0  0  0  0  0  0
   34.0563   37.9280   55.2843 H   0  0  0  0  0  0  0  0  0  0  0  0
   32.7199   35.7105   59.5297 H   0  0  0  0  0  0  0  0  0  0  0  0
   31.3869   35.5847   58.3564 H   0  0  0  0  0  0  0  0  0  0  0  0
   30.8910   34.4368   60.5444 H   0  0  0  0  0  0  0  0  0  0  0  0
   29.7308   35.7323   60.1590 H   0  0  0  0  0  0  0  0  0  0  0  0
  1  2  2  0  0  0  0
  2  3  1  0  0  0  0
  2  9  1  0  0  0  0
  3  8  2  0  0  0  0
  3  4  1  0  0  0  0
  4  5  2  0  0  0  0
  4 21  1  0  0  0  0
  5  6  1  0  0  0  0
  5 22  1  0  0  0  0
  6  7  2  0  0  0  0
  6 23  1  0  0  0  0
  7  8  1  0  0  0  0
  7 24  1  0  0  0  0
  8 25  1  0  0  0  0
  9 20  1  0  0  0  0
  9 10  1  0  0  0  0
 10 11  1  0  0  0  0
 10 26  1  0  0  0  0
 10 27  1  0  0  0  0
 11 12  1  0  0  0  0
 11 28  1  0  0  0  0
 11 29  1  0  0  0  0
 12 13  1  0  0  0  0
 12 19  1  0  0  0  0
 12 30  1  0  0  0  0
 13 17  1  0  0  0  0
 13 14  2  0  0  0  0
 14 15  1  0  0  0  0
 14 31  1  0  0  0  0
 15 16  2  0  0  0  0
 16 17  1  0  0  0  0
 16 32  1  0  0  0  0
 17 18  1  0  0  0  0
 19 20  1  0  0  0  0
 19 33  1  0  0  0  0
 19 34  1  0  0  0  0
 20 35  1  0  0  0  0
 20 36  1  0  0  0  0
M  END
$$$$
