ZINC000000052306      none
 OpenBabel11202420153D

 26 26  0  0  0  0  0  0  0  0999 V2000
   31.9030   34.6901   61.7519 C   0  0  0  0  0  0  0  0  0  0  0  0
   31.5666   35.7712   62.7808 C   0  0  0  0  0  0  0  0  0  0  0  0
   32.8592   36.4189   63.2813 C   0  0  0  0  0  0  0  0  0  0  0  0
   30.8512   35.1637   63.9149 C   0  0  0  0  0  0  0  0  0  0  0  0
   30.2991   34.6949   64.7899 N   0  0  0  0  0  0  0  0  0  0  0  0
   30.6809   36.8362   62.1307 C   0  0  0  0  0  0  0  0  0  0  0  0
   31.4244   37.4677   60.9521 C   0  0  0  0  0  0  0  0  0  0  0  0
   29.3883   36.1885   61.6304 C   0  0  0  0  0  0  0  0  0  0  0  0
   30.3496   37.9011   63.1444 C   0  0  0  0  0  0  0  0  0  0  0  0
   31.0478   39.0104   63.3877 N   0  0  0  0  0  0  0  0  0  0  0  0
   30.4324   39.6557   64.3197 N   0  0  0  0  0  0  0  0  0  0  0  0
   29.3890   38.9855   64.6671 N   0  0  0  0  0  0  0  0  0  0  0  0
   28.7542   39.2477   65.3521 H   0  0  0  0  0  0  0  0  0  0  0  0
   29.3232   37.9106   63.9589 N   0  0  0  0  0  0  0  0  0  0  0  0
   32.4327   35.1400   60.9121 H   0  0  0  0  0  0  0  0  0  0  0  0
   32.5339   33.9314   62.2150 H   0  0  0  0  0  0  0  0  0  0  0  0
   30.9821   34.2287   61.3953 H   0  0  0  0  0  0  0  0  0  0  0  0
   32.6194   37.1892   64.0144 H   0  0  0  0  0  0  0  0  0  0  0  0
   33.4900   35.6603   63.7445 H   0  0  0  0  0  0  0  0  0  0  0  0
   33.3889   36.8689   62.4416 H   0  0  0  0  0  0  0  0  0  0  0  0
   30.7935   38.2264   60.4889 H   0  0  0  0  0  0  0  0  0  0  0  0
   31.6640   36.6975   60.2190 H   0  0  0  0  0  0  0  0  0  0  0  0
   32.3453   37.9291   61.3086 H   0  0  0  0  0  0  0  0  0  0  0  0
   29.6279   35.4183   60.8973 H   0  0  0  0  0  0  0  0  0  0  0  0
   28.8586   35.7386   62.4700 H   0  0  0  0  0  0  0  0  0  0  0  0
   28.7574   36.9472   61.1673 H   0  0  0  0  0  0  0  0  0  0  0  0
  1  2  1  0  0  0  0
  1 15  1  0  0  0  0
  1 16  1  0  0  0  0
  1 17  1  0  0  0  0
  2  3  1  0  0  0  0
  2  4  1  0  0  0  0
  2  6  1  0  0  0  0
  3 18  1  0  0  0  0
  3 19  1  0  0  0  0
  3 20  1  0  0  0  0
  4  5  3  0  0  0  0
  6  7  1  0  0  0  0
  6  8  1  0  0  0  0
  6  9  1  0  0  0  0
  7 21  1  0  0  0  0
  7 22  1  0  0  0  0
  7 23  1  0  0  0  0
  8 24  1  0  0  0  0
  8 25  1  0  0  0  0
  8 26  1  0  0  0  0
  9 14  2  0  0  0  0
  9 10  1  0  0  0  0
 10 11  2  0  0  0  0
 11 12  1  0  0  0  0
 12 13  1  0  0  0  0
 12 14  1  0  0  0  0
M  END
$$$$
