ZINC000000001098      none
 OpenBabel11202420153D

 17 18  0  0  0  0  0  0  0  0999 V2000
   32.2480   38.4071   61.0613 O   0  0  0  0  0  0  0  0  0  0  0  0
   32.6090   38.3881   59.9015 C   0  0  0  0  0  0  0  0  0  0  0  0
   33.0091   39.5380   59.3345 N   0  0  0  0  0  0  0  0  0  0  0  0
   33.0039   40.3566   59.8549 H   0  0  0  0  0  0  0  0  0  0  0  0
   33.4193   39.5668   58.0464 C   0  0  0  0  0  0  0  0  0  0  0  0
   33.7826   40.6041   57.5268 O   0  0  0  0  0  0  0  0  0  0  0  0
   33.4171   38.2980   57.2934 C   0  0  0  0  0  0  0  0  0  0  0  0
   33.8171   38.2391   55.9608 C   0  0  0  0  0  0  0  0  0  0  0  0
   33.7920   37.0303   55.2966 C   0  0  0  0  0  0  0  0  0  0  0  0
   33.3667   35.8829   55.9474 C   0  0  0  0  0  0  0  0  0  0  0  0
   32.9619   35.9313   57.2670 C   0  0  0  0  0  0  0  0  0  0  0  0
   32.9805   37.1363   57.9499 C   0  0  0  0  0  0  0  0  0  0  0  0
   32.5903   37.2200   59.2433 O   0  0  0  0  0  0  0  0  0  0  0  0
   34.1489   39.1324   55.4524 H   0  0  0  0  0  0  0  0  0  0  0  0
   34.1057   36.9777   54.2645 H   0  0  0  0  0  0  0  0  0  0  0  0
   33.3511   34.9420   55.4173 H   0  0  0  0  0  0  0  0  0  0  0  0
   32.6315   35.0318   57.7652 H   0  0  0  0  0  0  0  0  0  0  0  0
  1  2  2  0  0  0  0
  2 13  1  0  0  0  0
  2  3  1  0  0  0  0
  3  4  1  0  0  0  0
  3  5  1  0  0  0  0
  5  6  2  0  0  0  0
  5  7  1  0  0  0  0
  7 12  2  0  0  0  0
  7  8  1  0  0  0  0
  8  9  2  0  0  0  0
  8 14  1  0  0  0  0
  9 10  1  0  0  0  0
  9 15  1  0  0  0  0
 10 11  2  0  0  0  0
 10 16  1  0  0  0  0
 11 12  1  0  0  0  0
 11 17  1  0  0  0  0
 12 13  1  0  0  0  0
M  END
$$$$
