ZINC000000034209      none
 OpenBabel11202420153D

 41 44  0  0  1  0  0  0  0  0999 V2000
   32.9080   39.1169   58.1291 C   0  0  0  0  0  0  0  0  0  0  0  0
   32.8568   37.6123   58.0600 C   0  0  0  0  0  0  0  0  0  0  0  0
   33.3756   36.9583   56.9624 C   0  0  0  0  0  0  0  0  0  0  0  0
   33.3323   35.5777   56.9018 C   0  0  0  0  0  0  0  0  0  0  0  0
   32.7640   34.8586   57.9335 C   0  0  0  0  0  0  0  0  0  0  0  0
   32.2360   35.5074   59.0416 C   0  0  0  0  0  0  0  0  0  0  0  0
   32.2801   36.8897   59.1033 C   0  0  0  0  0  0  0  0  0  0  0  0
   31.7583   37.6022   60.1824 N   0  0  0  0  0  0  0  0  0  0  0  0
   31.7452   36.8121   61.4139 C   0  0  1  0  0  0  0  0  0  0  0  0
   32.7669   36.5479   61.6869 H   0  0  0  0  0  0  0  0  0  0  0  0
   31.1219   37.6202   62.5227 C   0  0  0  0  0  0  0  0  0  0  0  0
   29.8209   38.0715   62.4017 C   0  0  0  0  0  0  0  0  0  0  0  0
   29.2476   38.8091   63.4206 C   0  0  0  0  0  0  0  0  0  0  0  0
   29.9785   39.1033   64.5564 C   0  0  0  0  0  0  0  0  0  0  0  0
   29.3662   39.8971   65.6455 N   0  0  0  0  0  0  0  0  0  0  0  0
   28.2184   40.2910   65.5407 O   0  0  0  0  0  0  0  0  0  0  0  0
   30.0103   40.1566   66.6462 O   0  0  0  0  0  0  0  0  0  0  0  0
   31.2812   38.6561   64.6754 C   0  0  0  0  0  0  0  0  0  0  0  0
   31.8529   37.9149   63.6582 C   0  0  0  0  0  0  0  0  0  0  0  0
   30.9302   35.5357   61.1925 C   0  0  2  0  0  0  0  0  0  0  0  0
   29.8837   35.7270   60.9553 H   0  0  0  0  0  0  0  0  0  0  0  0
   31.1161   34.6311   62.4435 C   0  0  0  0  0  0  0  0  0  0  0  0
   32.4380   33.9356   62.1848 C   0  0  0  0  0  0  0  0  0  0  0  0
   32.7240   33.9527   60.9069 C   0  0  0  0  0  0  0  0  0  0  0  0
   31.6404   34.6670   60.1321 C   0  0  2  0  0  0  0  0  0  0  0  0
   30.9379   33.9500   59.7073 H   0  0  0  0  0  0  0  0  0  0  0  0
   33.8335   39.4271   58.6141 H   0  0  0  0  0  0  0  0  0  0  0  0
   32.0566   39.4833   58.7027 H   0  0  0  0  0  0  0  0  0  0  0  0
   32.8707   39.5284   57.1204 H   0  0  0  0  0  0  0  0  0  0  0  0
   33.8181   37.5225   56.1546 H   0  0  0  0  0  0  0  0  0  0  0  0
   33.7394   35.0619   56.0447 H   0  0  0  0  0  0  0  0  0  0  0  0
   32.7293   33.7806   57.8784 H   0  0  0  0  0  0  0  0  0  0  0  0
   32.2537   38.4710   60.3155 H   0  0  0  0  0  0  0  0  0  0  0  0
   29.2512   37.8450   61.5124 H   0  0  0  0  0  0  0  0  0  0  0  0
   28.2298   39.1583   63.3278 H   0  0  0  0  0  0  0  0  0  0  0  0
   31.8521   38.8861   65.5627 H   0  0  0  0  0  0  0  0  0  0  0  0
   32.8707   37.5657   63.7510 H   0  0  0  0  0  0  0  0  0  0  0  0
   31.1710   35.2352   63.3490 H   0  0  0  0  0  0  0  0  0  0  0  0
   30.3073   33.9038   62.5145 H   0  0  0  0  0  0  0  0  0  0  0  0
   33.0578   33.4889   62.9481 H   0  0  0  0  0  0  0  0  0  0  0  0
   33.6096   33.5171   60.4683 H   0  0  0  0  0  0  0  0  0  0  0  0
  1  2  1  0  0  0  0
  1 27  1  0  0  0  0
  1 28  1  0  0  0  0
  1 29  1  0  0  0  0
  2  7  2  0  0  0  0
  2  3  1  0  0  0  0
  3  4  2  0  0  0  0
  3 30  1  0  0  0  0
  4  5  1  0  0  0  0
  4 31  1  0  0  0  0
  5  6  2  0  0  0  0
  5 32  1  0  0  0  0
  6 25  1  0  0  0  0
  6  7  1  0  0  0  0
  7  8  1  0  0  0  0
  8  9  1  0  0  0  0
  8 33  1  0  0  0  0
  9 10  1  1  0  0  0
  9 11  1  0  0  0  0
  9 20  1  0  0  0  0
 11 19  2  0  0  0  0
 11 12  1  0  0  0  0
 12 13  2  0  0  0  0
 12 34  1  0  0  0  0
 13 14  1  0  0  0  0
 13 35  1  0  0  0  0
 14 15  1  0  0  0  0
 14 18  2  0  0  0  0
 15 16  2  0  0  0  0
 15 17  2  0  0  0  0
 18 19  1  0  0  0  0
 18 36  1  0  0  0  0
 19 37  1  0  0  0  0
 20 21  1  6  0  0  0
 20 25  1  0  0  0  0
 20 22  1  0  0  0  0
 22 23  1  0  0  0  0
 22 38  1  0  0  0  0
 22 39  1  0  0  0  0
 23 24  2  0  0  0  0
 23 40  1  0  0  0  0
 24 25  1  0  0  0  0
 24 41  1  0  0  0  0
 25 26  1  6  0  0  0
M  END
$$$$
