ZINC000000037108      none
 OpenBabel11202420153D

 33 35  0  0  0  0  0  0  0  0999 V2000
   35.0100   38.3839   52.6318 C   0  0  0  0  0  0  0  0  0  0  0  0
   34.6103   38.8060   54.0221 C   0  0  0  0  0  0  0  0  0  0  0  0
   34.6324   40.0719   54.4943 C   0  0  0  0  0  0  0  0  0  0  0  0
   34.1868   40.0269   55.8243 C   0  0  0  0  0  0  0  0  0  0  0  0
   33.9092   38.7038   56.1008 C   0  0  0  0  0  0  0  0  0  0  0  0
   33.4311   38.1914   57.3299 C   0  0  0  0  0  0  0  0  0  0  0  0
   33.2066   36.9054   57.4616 N   0  0  0  0  0  0  0  0  0  0  0  0
   32.7510   36.4170   58.6329 C   0  0  0  0  0  0  0  0  0  0  0  0
   32.4179   37.3682   60.0712 S   0  0  0  0  0  0  0  0  0  0  0  0
   31.9163   35.9371   60.9608 C   0  0  0  0  0  0  0  0  0  0  0  0
   32.0141   34.8398   60.1944 C   0  0  0  0  0  0  0  0  0  0  0  0
   32.4783   35.0913   58.8933 C   0  0  0  0  0  0  0  0  0  0  0  0
   32.6531   34.0571   57.9185 C   0  0  0  0  0  0  0  0  0  0  0  0
   32.7917   33.2367   57.1450 N   0  0  0  0  0  0  0  0  0  0  0  0
   31.6536   33.4455   60.6916 C   0  0  0  0  0  0  0  0  0  0  0  0
   31.6116   33.4610   62.2204 C   0  0  0  0  0  0  0  0  0  0  0  0
   30.7245   34.6188   62.6878 C   0  0  0  0  0  0  0  0  0  0  0  0
   31.4417   35.9407   62.4012 C   0  0  0  0  0  0  0  0  0  0  0  0
   34.1808   37.9851   54.9912 O   0  0  0  0  0  0  0  0  0  0  0  0
   36.0736   38.1460   52.6160 H   0  0  0  0  0  0  0  0  0  0  0  0
   34.4365   37.5040   52.3402 H   0  0  0  0  0  0  0  0  0  0  0  0
   34.8090   39.1963   51.9335 H   0  0  0  0  0  0  0  0  0  0  0  0
   34.9367   40.9536   53.9498 H   0  0  0  0  0  0  0  0  0  0  0  0
   34.0817   40.8637   56.4989 H   0  0  0  0  0  0  0  0  0  0  0  0
   33.2510   38.8588   58.1597 H   0  0  0  0  0  0  0  0  0  0  0  0
   30.6762   33.1604   60.3024 H   0  0  0  0  0  0  0  0  0  0  0  0
   32.4042   32.7315   60.3524 H   0  0  0  0  0  0  0  0  0  0  0  0
   31.2014   32.5185   62.5830 H   0  0  0  0  0  0  0  0  0  0  0  0
   32.6204   33.5945   62.6111 H   0  0  0  0  0  0  0  0  0  0  0  0
   29.7772   34.5932   62.1491 H   0  0  0  0  0  0  0  0  0  0  0  0
   30.5401   34.5282   63.7583 H   0  0  0  0  0  0  0  0  0  0  0  0
   30.7532   36.7711   62.5572 H   0  0  0  0  0  0  0  0  0  0  0  0
   32.2983   36.0435   63.0675 H   0  0  0  0  0  0  0  0  0  0  0  0
  1  2  1  0  0  0  0
  1 20  1  0  0  0  0
  1 21  1  0  0  0  0
  1 22  1  0  0  0  0
  2 19  1  0  0  0  0
  2  3  2  0  0  0  0
  3  4  1  0  0  0  0
  3 23  1  0  0  0  0
  4  5  2  0  0  0  0
  4 24  1  0  0  0  0
  5  6  1  0  0  0  0
  5 19  1  0  0  0  0
  6  7  2  0  0  0  0
  6 25  1  0  0  0  0
  7  8  1  0  0  0  0
  8 12  2  0  0  0  0
  8  9  1  0  0  0  0
  9 10  1  0  0  0  0
 10 18  1  0  0  0  0
 10 11  2  0  0  0  0
 11 12  1  0  0  0  0
 11 15  1  0  0  0  0
 12 13  1  0  0  0  0
 13 14  3  0  0  0  0
 15 16  1  0  0  0  0
 15 26  1  0  0  0  0
 15 27  1  0  0  0  0
 16 17  1  0  0  0  0
 16 28  1  0  0  0  0
 16 29  1  0  0  0  0
 17 18  1  0  0  0  0
 17 30  1  0  0  0  0
 17 31  1  0  0  0  0
 18 32  1  0  0  0  0
 18 33  1  0  0  0  0
M  END
$$$$
