ZINC000000007041      none
 OpenBabel11202420153D

 37 38  0  0  0  0  0  0  0  0999 V2000
   30.3655   34.4730   59.6405 O   0  0  0  0  0  0  0  0  0  0  0  0
   31.5573   34.7049   59.5555 C   0  0  0  0  0  0  0  0  0  0  0  0
   32.0929   35.3551   58.3584 C   0  0  0  0  0  0  0  0  0  0  0  0
   32.7307   36.5387   58.4622 C   0  0  0  0  0  0  0  0  0  0  0  0
   33.2693   37.1923   57.2587 C   0  0  0  0  0  0  0  0  0  0  0  0
   33.5050   36.4458   56.0996 C   0  0  0  0  0  0  0  0  0  0  0  0
   34.0055   37.0655   54.9748 C   0  0  0  0  0  0  0  0  0  0  0  0
   34.2844   38.4225   54.9934 C   0  0  0  0  0  0  0  0  0  0  0  0
   34.9202   39.1935   53.5740 Cl  0  0  0  0  0  0  0  0  0  0  0  0
   34.0578   39.1673   56.1396 C   0  0  0  0  0  0  0  0  0  0  0  0
   33.5531   38.5619   57.2703 C   0  0  0  0  0  0  0  0  0  0  0  0
   32.3838   34.3630   60.5637 N   0  0  0  0  0  0  0  0  0  0  0  0
   31.8479   33.7122   61.7618 C   0  0  0  0  0  0  0  0  0  0  0  0
   30.8180   34.6302   62.4234 C   0  0  0  0  0  0  0  0  0  0  0  0
   30.2667   33.9606   63.6557 C   0  0  0  0  0  0  0  0  0  0  0  0
   30.1869   32.5816   63.7149 C   0  0  0  0  0  0  0  0  0  0  0  0
   29.6872   31.9653   64.8457 C   0  0  0  0  0  0  0  0  0  0  0  0
   29.2542   32.7316   65.9180 C   0  0  0  0  0  0  0  0  0  0  0  0
   28.7562   32.1280   67.0291 O   0  0  0  0  0  0  0  0  0  0  0  0
   29.3300   34.1155   65.8539 C   0  0  0  0  0  0  0  0  0  0  0  0
   29.8362   34.7267   64.7233 C   0  0  0  0  0  0  0  0  0  0  0  0
   31.9773   34.8870   57.3922 H   0  0  0  0  0  0  0  0  0  0  0  0
   32.8463   37.0070   59.4285 H   0  0  0  0  0  0  0  0  0  0  0  0
   33.2920   35.3872   56.0849 H   0  0  0  0  0  0  0  0  0  0  0  0
   34.1848   36.4911   54.0780 H   0  0  0  0  0  0  0  0  0  0  0  0
   34.2775   40.2247   56.1471 H   0  0  0  0  0  0  0  0  0  0  0  0
   33.3770   39.1436   58.1631 H   0  0  0  0  0  0  0  0  0  0  0  0
   33.3337   34.5478   60.4960 H   0  0  0  0  0  0  0  0  0  0  0  0
   32.6598   33.5134   62.4613 H   0  0  0  0  0  0  0  0  0  0  0  0
   31.3709   32.7728   61.4823 H   0  0  0  0  0  0  0  0  0  0  0  0
   30.0060   34.8290   61.7238 H   0  0  0  0  0  0  0  0  0  0  0  0
   31.2951   35.5695   62.7027 H   0  0  0  0  0  0  0  0  0  0  0  0
   30.5194   31.9855   62.8779 H   0  0  0  0  0  0  0  0  0  0  0  0
   29.6288   30.8879   64.8930 H   0  0  0  0  0  0  0  0  0  0  0  0
   28.4808   32.7442   67.7215 H   0  0  0  0  0  0  0  0  0  0  0  0
   28.9932   34.7143   66.6872 H   0  0  0  0  0  0  0  0  0  0  0  0
   29.8955   35.8039   64.6731 H   0  0  0  0  0  0  0  0  0  0  0  0
  1  2  2  0  0  0  0
  2  3  1  0  0  0  0
  2 12  1  0  0  0  0
  3  4  2  0  0  0  0
  3 22  1  0  0  0  0
  4  5  1  0  0  0  0
  4 23  1  0  0  0  0
  5 11  2  0  0  0  0
  5  6  1  0  0  0  0
  6  7  2  0  0  0  0
  6 24  1  0  0  0  0
  7  8  1  0  0  0  0
  7 25  1  0  0  0  0
  8  9  1  0  0  0  0
  8 10  2  0  0  0  0
 10 11  1  0  0  0  0
 10 26  1  0  0  0  0
 11 27  1  0  0  0  0
 12 13  1  0  0  0  0
 12 28  1  0  0  0  0
 13 14  1  0  0  0  0
 13 29  1  0  0  0  0
 13 30  1  0  0  0  0
 14 15  1  0  0  0  0
 14 31  1  0  0  0  0
 14 32  1  0  0  0  0
 15 21  2  0  0  0  0
 15 16  1  0  0  0  0
 16 17  2  0  0  0  0
 16 33  1  0  0  0  0
 17 18  1  0  0  0  0
 17 34  1  0  0  0  0
 18 19  1  0  0  0  0
 18 20  2  0  0  0  0
 19 35  1  0  0  0  0
 20 21  1  0  0  0  0
 20 36  1  0  0  0  0
 21 37  1  0  0  0  0
M  END
$$$$
