ZINC000000003106      none
 OpenBabel11202420153D

 45 48  0  0  0  0  0  0  0  0999 V2000
   29.3558   39.4908   65.6052 C   0  0  0  0  0  0  0  0  0  0  0  0
   30.0023   38.5920   66.5086 O   0  0  0  0  0  0  0  0  0  0  0  0
   31.1807   38.0498   66.1019 C   0  0  0  0  0  0  0  0  0  0  0  0
   32.3755   38.6924   66.3849 C   0  0  0  0  0  0  0  0  0  0  0  0
   33.5727   38.1403   65.9700 C   0  0  0  0  0  0  0  0  0  0  0  0
   33.5826   36.9461   65.2726 C   0  0  0  0  0  0  0  0  0  0  0  0
   32.3962   36.2961   64.9915 C   0  0  0  0  0  0  0  0  0  0  0  0
   31.1903   36.8470   65.3996 C   0  0  0  0  0  0  0  0  0  0  0  0
   29.9841   36.1916   65.1108 N   0  0  0  0  0  0  0  0  0  0  0  0
   29.0636   35.7313   66.0039 C   0  0  0  0  0  0  0  0  0  0  0  0
   29.1497   35.8316   67.5052 C   0  0  0  0  0  0  0  0  0  0  0  0
   28.0951   35.1823   65.3200 N   0  0  0  0  0  0  0  0  0  0  0  0
   28.3386   35.2689   64.0610 N   0  0  0  0  0  0  0  0  0  0  0  0
   29.4860   35.8834   63.8712 C   0  0  0  0  0  0  0  0  0  0  0  0
   30.1206   36.1796   62.5697 C   0  0  0  0  0  0  0  0  0  0  0  0
   30.4497   35.1379   61.6996 C   0  0  0  0  0  0  0  0  0  0  0  0
   31.0412   35.4147   60.4876 C   0  0  0  0  0  0  0  0  0  0  0  0
   31.3168   36.7347   60.1308 C   0  0  0  0  0  0  0  0  0  0  0  0
   31.9596   37.0313   58.8278 C   0  0  0  0  0  0  0  0  0  0  0  0
   31.6924   38.2326   58.1733 C   0  0  0  0  0  0  0  0  0  0  0  0
   32.2965   38.5050   56.9628 C   0  0  0  0  0  0  0  0  0  0  0  0
   33.1586   37.5845   56.3943 C   0  0  0  0  0  0  0  0  0  0  0  0
   33.4239   36.3886   57.0371 C   0  0  0  0  0  0  0  0  0  0  0  0
   32.8288   36.1073   58.2501 C   0  0  0  0  0  0  0  0  0  0  0  0
   30.9837   37.7761   60.9969 C   0  0  0  0  0  0  0  0  0  0  0  0
   30.3921   37.5013   62.2093 C   0  0  0  0  0  0  0  0  0  0  0  0
   28.4285   39.8501   66.0515 H   0  0  0  0  0  0  0  0  0  0  0  0
   30.0126   40.3366   65.4018 H   0  0  0  0  0  0  0  0  0  0  0  0
   29.1331   38.9716   64.6732 H   0  0  0  0  0  0  0  0  0  0  0  0
   32.3710   39.6252   66.9294 H   0  0  0  0  0  0  0  0  0  0  0  0
   34.5028   38.6430   66.1907 H   0  0  0  0  0  0  0  0  0  0  0  0
   34.5205   36.5184   64.9503 H   0  0  0  0  0  0  0  0  0  0  0  0
   32.4074   35.3616   64.4502 H   0  0  0  0  0  0  0  0  0  0  0  0
   29.6600   34.9528   67.8994 H   0  0  0  0  0  0  0  0  0  0  0  0
   29.7067   36.7279   67.7779 H   0  0  0  0  0  0  0  0  0  0  0  0
   28.1448   35.8867   67.9238 H   0  0  0  0  0  0  0  0  0  0  0  0
   30.2398   34.1155   61.9774 H   0  0  0  0  0  0  0  0  0  0  0  0
   31.2961   34.6092   59.8148 H   0  0  0  0  0  0  0  0  0  0  0  0
   31.0166   38.9504   58.6144 H   0  0  0  0  0  0  0  0  0  0  0  0
   32.0927   39.4369   56.4564 H   0  0  0  0  0  0  0  0  0  0  0  0
   33.6262   37.8003   55.4451 H   0  0  0  0  0  0  0  0  0  0  0  0
   34.0975   35.6736   56.5885 H   0  0  0  0  0  0  0  0  0  0  0  0
   33.0361   35.1731   58.7506 H   0  0  0  0  0  0  0  0  0  0  0  0
   31.1937   38.7982   60.7181 H   0  0  0  0  0  0  0  0  0  0  0  0
   30.1377   38.3075   62.8815 H   0  0  0  0  0  0  0  0  0  0  0  0
  1  2  1  0  0  0  0
  1 27  1  0  0  0  0
  1 28  1  0  0  0  0
  1 29  1  0  0  0  0
  2  3  1  0  0  0  0
  3  8  2  0  0  0  0
  3  4  1  0  0  0  0
  4  5  2  0  0  0  0
  4 30  1  0  0  0  0
  5  6  1  0  0  0  0
  5 31  1  0  0  0  0
  6  7  2  0  0  0  0
  6 32  1  0  0  0  0
  7  8  1  0  0  0  0
  7 33  1  0  0  0  0
  8  9  1  0  0  0  0
  9 14  1  0  0  0  0
  9 10  1  0  0  0  0
 10 11  1  0  0  0  0
 10 12  2  0  0  0  0
 11 34  1  0  0  0  0
 11 35  1  0  0  0  0
 11 36  1  0  0  0  0
 12 13  1  0  0  0  0
 13 14  2  0  0  0  0
 14 15  1  0  0  0  0
 15 26  2  0  0  0  0
 15 16  1  0  0  0  0
 16 17  2  0  0  0  0
 16 37  1  0  0  0  0
 17 18  1  0  0  0  0
 17 38  1  0  0  0  0
 18 19  1  0  0  0  0
 18 25  2  0  0  0  0
 19 24  2  0  0  0  0
 19 20  1  0  0  0  0
 20 21  2  0  0  0  0
 20 39  1  0  0  0  0
 21 22  1  0  0  0  0
 21 40  1  0  0  0  0
 22 23  2  0  0  0  0
 22 41  1  0  0  0  0
 23 24  1  0  0  0  0
 23 42  1  0  0  0  0
 24 43  1  0  0  0  0
 25 26  1  0  0  0  0
 25 44  1  0  0  0  0
 26 45  1  0  0  0  0
M  END
$$$$
