ZINC000000001690      none
 OpenBabel11202420153D

 28 30  0  0  0  0  0  0  0  0999 V2000
   32.2406   35.1600   63.2547 C   0  0  0  0  0  0  0  0  0  0  0  0
   32.2508   35.8928   61.9380 C   0  0  0  0  0  0  0  0  0  0  0  0
   32.2516   37.2750   61.9133 C   0  0  0  0  0  0  0  0  0  0  0  0
   32.2611   37.9378   60.7043 C   0  0  0  0  0  0  0  0  0  0  0  0
   32.2699   37.2316   59.4982 C   0  0  0  0  0  0  0  0  0  0  0  0
   32.2679   35.8498   59.5228 C   0  0  0  0  0  0  0  0  0  0  0  0
   32.2588   35.1872   60.7534 C   0  0  0  0  0  0  0  0  0  0  0  0
   32.2692   34.8621   58.0741 S   0  0  0  0  0  0  0  0  0  0  0  0
   33.1243   35.8005   56.8608 C   0  0  0  0  0  0  0  0  0  0  0  0
   33.8259   35.0969   55.8778 C   0  0  0  0  0  0  0  0  0  0  0  0
   34.5197   35.7623   54.8893 C   0  0  0  0  0  0  0  0  0  0  0  0
   34.5240   37.1445   54.8655 C   0  0  0  0  0  0  0  0  0  0  0  0
   35.2805   37.8802   53.7897 C   0  0  0  0  0  0  0  0  0  0  0  0
   33.8339   37.8476   55.8303 C   0  0  0  0  0  0  0  0  0  0  0  0
   33.1276   37.1824   56.8363 C   0  0  0  0  0  0  0  0  0  0  0  0
   32.2825   38.1671   58.0154 S   0  0  0  0  0  0  0  0  0  0  0  0
   33.2657   34.9824   63.5796 H   0  0  0  0  0  0  0  0  0  0  0  0
   31.7217   35.7614   64.0013 H   0  0  0  0  0  0  0  0  0  0  0  0
   31.7267   34.2061   63.1357 H   0  0  0  0  0  0  0  0  0  0  0  0
   32.2446   37.8336   62.8376 H   0  0  0  0  0  0  0  0  0  0  0  0
   32.2618   39.0177   60.6891 H   0  0  0  0  0  0  0  0  0  0  0  0
   32.2584   34.1075   60.7768 H   0  0  0  0  0  0  0  0  0  0  0  0
   33.8249   34.0171   55.8929 H   0  0  0  0  0  0  0  0  0  0  0  0
   35.0576   35.2057   54.1361 H   0  0  0  0  0  0  0  0  0  0  0  0
   36.3012   38.0648   54.1247 H   0  0  0  0  0  0  0  0  0  0  0  0
   35.2996   37.2772   52.8819 H   0  0  0  0  0  0  0  0  0  0  0  0
   34.7880   38.8306   53.5842 H   0  0  0  0  0  0  0  0  0  0  0  0
   33.8394   38.9274   55.8084 H   0  0  0  0  0  0  0  0  0  0  0  0
  1  2  1  0  0  0  0
  1 17  1  0  0  0  0
  1 18  1  0  0  0  0
  1 19  1  0  0  0  0
  2  7  2  0  0  0  0
  2  3  1  0  0  0  0
  3  4  2  0  0  0  0
  3 20  1  0  0  0  0
  4  5  1  0  0  0  0
  4 21  1  0  0  0  0
  5 16  1  0  0  0  0
  5  6  2  0  0  0  0
  6  7  1  0  0  0  0
  6  8  1  0  0  0  0
  7 22  1  0  0  0  0
  8  9  1  0  0  0  0
  9 15  2  0  0  0  0
  9 10  1  0  0  0  0
 10 11  2  0  0  0  0
 10 23  1  0  0  0  0
 11 12  1  0  0  0  0
 11 24  1  0  0  0  0
 12 13  1  0  0  0  0
 12 14  2  0  0  0  0
 13 25  1  0  0  0  0
 13 26  1  0  0  0  0
 13 27  1  0  0  0  0
 14 15  1  0  0  0  0
 14 28  1  0  0  0  0
 15 16  1  0  0  0  0
M  END
$$$$
