ZINC000000004285      none
 OpenBabel11202420153D

 27 28  0  0  0  0  0  0  0  0999 V2000
   32.3588   34.3018   57.6768 Cl  0  0  0  0  0  0  0  0  0  0  0  0
   32.4032   35.8497   58.4611 C   0  0  0  0  0  0  0  0  0  0  0  0
   32.8089   36.9704   57.7572 C   0  0  0  0  0  0  0  0  0  0  0  0
   32.8451   38.2049   58.3783 C   0  0  0  0  0  0  0  0  0  0  0  0
   32.4763   38.3240   59.7041 C   0  0  0  0  0  0  0  0  0  0  0  0
   32.0687   37.2018   60.4141 C   0  0  0  0  0  0  0  0  0  0  0  0
   31.6958   37.3194   61.7549 N   0  0  0  0  0  0  0  0  0  0  0  0
   32.6065   36.5602   62.6234 C   0  0  0  0  0  0  0  0  0  0  0  0
   32.2003   36.7629   64.0848 C   0  0  0  0  0  0  0  0  0  0  0  0
   30.8179   36.3054   64.2769 N   0  3  0  0  0  0  0  0  0  0  0  0
   30.5545   36.4277   65.2432 H   0  0  0  0  0  0  0  0  0  0  0  0
   30.7496   35.3291   64.0311 H   0  0  0  0  0  0  0  0  0  0  0  0
   29.9175   37.0894   63.4213 C   0  0  0  0  0  0  0  0  0  0  0  0
   30.3047   36.8894   61.9544 C   0  0  0  0  0  0  0  0  0  0  0  0
   32.0331   35.9624   59.7879 C   0  0  0  0  0  0  0  0  0  0  0  0
   33.0981   36.8801   56.7204 H   0  0  0  0  0  0  0  0  0  0  0  0
   33.1624   39.0773   57.8263 H   0  0  0  0  0  0  0  0  0  0  0  0
   32.5053   39.2889   60.1886 H   0  0  0  0  0  0  0  0  0  0  0  0
   32.5486   35.5008   62.3735 H   0  0  0  0  0  0  0  0  0  0  0  0
   33.6273   36.9134   62.4772 H   0  0  0  0  0  0  0  0  0  0  0  0
   32.2715   37.8207   64.3382 H   0  0  0  0  0  0  0  0  0  0  0  0
   32.8659   36.1892   64.7298 H   0  0  0  0  0  0  0  0  0  0  0  0
   30.0002   38.1455   63.6782 H   0  0  0  0  0  0  0  0  0  0  0  0
   28.8905   36.7578   63.5744 H   0  0  0  0  0  0  0  0  0  0  0  0
   29.6460   37.4828   61.3203 H   0  0  0  0  0  0  0  0  0  0  0  0
   30.2087   35.8355   61.6935 H   0  0  0  0  0  0  0  0  0  0  0  0
   31.7124   35.0887   60.3358 H   0  0  0  0  0  0  0  0  0  0  0  0
  1  2  1  0  0  0  0
  2 15  2  0  0  0  0
  2  3  1  0  0  0  0
  3  4  2  0  0  0  0
  3 16  1  0  0  0  0
  4  5  1  0  0  0  0
  4 17  1  0  0  0  0
  5  6  2  0  0  0  0
  5 18  1  0  0  0  0
  6  7  1  0  0  0  0
  6 15  1  0  0  0  0
  7 14  1  0  0  0  0
  7  8  1  0  0  0  0
  8  9  1  0  0  0  0
  8 19  1  0  0  0  0
  8 20  1  0  0  0  0
  9 10  1  0  0  0  0
  9 21  1  0  0  0  0
  9 22  1  0  0  0  0
 10 11  1  0  0  0  0
 10 12  1  0  0  0  0
 10 13  1  0  0  0  0
 13 14  1  0  0  0  0
 13 23  1  0  0  0  0
 13 24  1  0  0  0  0
 14 25  1  0  0  0  0
 14 26  1  0  0  0  0
 15 27  1  0  0  0  0
M  CHG  1  10   1
M  END
$$$$
