ZINC000000037701      none
 OpenBabel11202420153D

 47 48  0  0  1  0  0  0  0  0999 V2000
   27.5632   37.0072   61.6933 C   0  0  0  0  0  0  0  0  0  0  0  0
   28.6556   36.2987   62.4969 C   0  0  0  0  0  0  0  0  0  0  0  0
   30.0088   36.7635   62.0238 C   0  0  0  0  0  0  0  0  0  0  0  0
   30.2726   36.8608   60.6715 C   0  0  0  0  0  0  0  0  0  0  0  0
   31.5139   37.2872   60.2367 C   0  0  0  0  0  0  0  0  0  0  0  0
   32.4952   37.6181   61.1534 C   0  0  0  0  0  0  0  0  0  0  0  0
   32.2363   37.5285   62.5068 C   0  0  0  0  0  0  0  0  0  0  0  0
   30.9920   37.0950   62.9472 C   0  0  0  0  0  0  0  0  0  0  0  0
   30.7284   36.9983   64.3155 N   0  0  0  0  0  0  0  0  0  0  0  0
   30.1798   38.1481   65.0387 C   0  0  0  0  0  0  0  0  0  0  0  0
   31.3092   38.9914   65.5723 C   0  0  0  0  0  0  0  0  0  0  0  0
   31.4174   40.1488   65.2266 O   0  0  0  0  0  0  0  0  0  0  0  0
   32.1987   38.4592   66.4336 N   0  0  0  0  0  0  0  0  0  0  0  0
   33.2967   39.2789   66.9522 C   0  0  0  0  0  0  0  0  0  0  0  0
   33.1992   39.3562   68.4771 C   0  0  2  0  0  0  0  0  0  0  0  0
   34.0138   39.9651   68.8691 H   0  0  0  0  0  0  0  0  0  0  0  0
   33.2685   37.9371   69.0808 C   0  0  0  0  0  0  0  0  0  0  0  0
   32.2318   38.0187   70.2343 C   0  0  0  0  0  0  0  0  0  0  0  0
   31.1807   38.9758   69.6178 C   0  0  0  0  0  0  0  0  0  0  0  0
   31.9408   39.9266   68.8551 O   0  0  0  0  0  0  0  0  0  0  0  0
   31.0358   35.5840   65.1200 S   0  0  0  0  0  0  0  0  0  0  0  0
   29.4910   34.6424   64.9868 C   0  0  0  0  0  0  0  0  0  0  0  0
   32.0642   34.9647   64.3598 O   0  0  0  0  0  0  0  0  0  0  0  0
   31.2599   35.9869   66.4641 O   0  0  0  0  0  0  0  0  0  0  0  0
   27.6917   38.0863   61.7783 H   0  0  0  0  0  0  0  0  0  0  0  0
   27.6348   36.7141   60.6459 H   0  0  0  0  0  0  0  0  0  0  0  0
   26.5850   36.7259   62.0833 H   0  0  0  0  0  0  0  0  0  0  0  0
   28.5710   35.2214   62.3538 H   0  0  0  0  0  0  0  0  0  0  0  0
   28.5397   36.5349   63.5546 H   0  0  0  0  0  0  0  0  0  0  0  0
   29.5086   36.6032   59.9529 H   0  0  0  0  0  0  0  0  0  0  0  0
   31.7179   37.3617   59.1787 H   0  0  0  0  0  0  0  0  0  0  0  0
   33.4639   37.9505   60.8104 H   0  0  0  0  0  0  0  0  0  0  0  0
   33.0015   37.7913   63.2222 H   0  0  0  0  0  0  0  0  0  0  0  0
   29.5657   37.7967   65.8679 H   0  0  0  0  0  0  0  0  0  0  0  0
   29.5688   38.7453   64.3617 H   0  0  0  0  0  0  0  0  0  0  0  0
   32.1121   37.5335   66.7100 H   0  0  0  0  0  0  0  0  0  0  0  0
   33.2304   40.2826   66.5323 H   0  0  0  0  0  0  0  0  0  0  0  0
   34.2494   38.8299   66.6712 H   0  0  0  0  0  0  0  0  0  0  0  0
   32.9732   37.1881   68.3462 H   0  0  0  0  0  0  0  0  0  0  0  0
   34.2654   37.7291   69.4694 H   0  0  0  0  0  0  0  0  0  0  0  0
   32.6759   38.4487   71.1321 H   0  0  0  0  0  0  0  0  0  0  0  0
   31.7979   37.0409   70.4434 H   0  0  0  0  0  0  0  0  0  0  0  0
   30.6223   39.4823   70.4053 H   0  0  0  0  0  0  0  0  0  0  0  0
   30.5024   38.4242   68.9669 H   0  0  0  0  0  0  0  0  0  0  0  0
   29.3067   34.3926   63.9421 H   0  0  0  0  0  0  0  0  0  0  0  0
   29.5727   33.7256   65.5707 H   0  0  0  0  0  0  0  0  0  0  0  0
   28.6653   35.2435   65.3678 H   0  0  0  0  0  0  0  0  0  0  0  0
  1  2  1  0  0  0  0
  1 25  1  0  0  0  0
  1 26  1  0  0  0  0
  1 27  1  0  0  0  0
  2  3  1  0  0  0  0
  2 28  1  0  0  0  0
  2 29  1  0  0  0  0
  3  8  2  0  0  0  0
  3  4  1  0  0  0  0
  4  5  2  0  0  0  0
  4 30  1  0  0  0  0
  5  6  1  0  0  0  0
  5 31  1  0  0  0  0
  6  7  2  0  0  0  0
  6 32  1  0  0  0  0
  7  8  1  0  0  0  0
  7 33  1  0  0  0  0
  8  9  1  0  0  0  0
  9 10  1  0  0  0  0
  9 21  1  0  0  0  0
 10 11  1  0  0  0  0
 10 34  1  0  0  0  0
 10 35  1  0  0  0  0
 11 12  2  0  0  0  0
 11 13  1  0  0  0  0
 13 14  1  0  0  0  0
 13 36  1  0  0  0  0
 14 15  1  0  0  0  0
 14 37  1  0  0  0  0
 14 38  1  0  0  0  0
 15 16  1  1  0  0  0
 15 20  1  0  0  0  0
 15 17  1  0  0  0  0
 17 18  1  0  0  0  0
 17 39  1  0  0  0  0
 17 40  1  0  0  0  0
 18 19  1  0  0  0  0
 18 41  1  0  0  0  0
 18 42  1  0  0  0  0
 19 20  1  0  0  0  0
 19 43  1  0  0  0  0
 19 44  1  0  0  0  0
 21 22  1  0  0  0  0
 21 23  2  0  0  0  0
 21 24  2  0  0  0  0
 22 45  1  0  0  0  0
 22 46  1  0  0  0  0
 22 47  1  0  0  0  0
M  END
$$$$
