ZINC000000015566      none
 OpenBabel11202420153D

 27 29  0  0  0  0  0  0  0  0999 V2000
   31.4465   33.9300   59.8384 C   0  0  0  0  0  0  0  0  0  0  0  0
   31.3388   35.3649   59.5634 N   0  0  0  0  0  0  0  0  0  0  0  0
   30.5005   36.2301   60.1670 C   0  0  0  0  0  0  0  0  0  0  0  0
   29.7025   35.9422   61.0380 O   0  0  0  0  0  0  0  0  0  0  0  0
   30.6824   37.4587   59.6583 O   0  0  0  0  0  0  0  0  0  0  0  0
   31.6498   37.4069   58.7092 C   0  0  0  0  0  0  0  0  0  0  0  0
   32.2197   38.3661   57.8939 C   0  0  0  0  0  0  0  0  0  0  0  0
   33.2189   38.0025   56.9886 C   0  0  0  0  0  0  0  0  0  0  0  0
   33.8276   39.0227   56.1115 C   0  0  0  0  0  0  0  0  0  0  0  0
   33.9082   40.1782   56.4866 O   0  0  0  0  0  0  0  0  0  0  0  0
   34.3399   38.6432   54.7926 C   0  0  0  0  0  0  0  0  0  0  0  0
   34.9190   39.4843   53.8826 C   0  0  0  0  0  0  0  0  0  0  0  0
   35.2604   38.7012   52.7702 C   0  0  0  0  0  0  0  0  0  0  0  0
   34.8721   37.4344   53.0407 C   0  0  0  0  0  0  0  0  0  0  0  0
   34.3182   37.4039   54.2599 O   0  0  0  0  0  0  0  0  0  0  0  0
   33.6473   36.6728   56.9170 C   0  0  0  0  0  0  0  0  0  0  0  0
   33.0809   35.7212   57.7345 C   0  0  0  0  0  0  0  0  0  0  0  0
   32.0829   36.0806   58.6320 C   0  0  0  0  0  0  0  0  0  0  0  0
   32.1857   33.7646   60.6222 H   0  0  0  0  0  0  0  0  0  0  0  0
   30.4789   33.5491   60.1652 H   0  0  0  0  0  0  0  0  0  0  0  0
   31.7548   33.4085   58.9323 H   0  0  0  0  0  0  0  0  0  0  0  0
   31.8904   39.3930   57.9536 H   0  0  0  0  0  0  0  0  0  0  0  0
   35.0839   40.5452   53.9992 H   0  0  0  0  0  0  0  0  0  0  0  0
   35.7392   39.0460   51.8657 H   0  0  0  0  0  0  0  0  0  0  0  0
   34.9891   36.5866   52.3819 H   0  0  0  0  0  0  0  0  0  0  0  0
   34.4232   36.3928   56.2200 H   0  0  0  0  0  0  0  0  0  0  0  0
   33.4126   34.6948   57.6787 H   0  0  0  0  0  0  0  0  0  0  0  0
  1  2  1  0  0  0  0
  1 19  1  0  0  0  0
  1 20  1  0  0  0  0
  1 21  1  0  0  0  0
  2 18  1  0  0  0  0
  2  3  1  0  0  0  0
  3  4  2  0  0  0  0
  3  5  1  0  0  0  0
  5  6  1  0  0  0  0
  6 18  2  0  0  0  0
  6  7  1  0  0  0  0
  7  8  2  0  0  0  0
  7 22  1  0  0  0  0
  8  9  1  0  0  0  0
  8 16  1  0  0  0  0
  9 10  2  0  0  0  0
  9 11  1  0  0  0  0
 11 15  1  0  0  0  0
 11 12  2  0  0  0  0
 12 13  1  0  0  0  0
 12 23  1  0  0  0  0
 13 14  2  0  0  0  0
 13 24  1  0  0  0  0
 14 15  1  0  0  0  0
 14 25  1  0  0  0  0
 16 17  2  0  0  0  0
 16 26  1  0  0  0  0
 17 18  1  0  0  0  0
 17 27  1  0  0  0  0
M  END
$$$$
