ZINC000000012630      none
 OpenBabel11202420153D

 34 37  0  0  0  0  0  0  0  0999 V2000
   31.1618   38.2816   63.3547 C   0  0  0  0  0  0  0  0  0  0  0  0
   31.4499   37.2464   62.2980 C   0  0  0  0  0  0  0  0  0  0  0  0
   31.9054   37.6412   61.0591 C   0  0  0  0  0  0  0  0  0  0  0  0
   32.1717   36.6902   60.0835 C   0  0  0  0  0  0  0  0  0  0  0  0
   32.6261   36.7579   58.7806 N   0  0  0  0  0  0  0  0  0  0  0  0
   32.8536   37.5640   58.2914 H   0  0  0  0  0  0  0  0  0  0  0  0
   32.6957   35.4751   58.3093 C   0  0  0  0  0  0  0  0  0  0  0  0
   33.1368   35.0909   56.9498 C   0  0  0  0  0  0  0  0  0  0  0  0
   33.1800   33.7477   56.5607 C   0  0  0  0  0  0  0  0  0  0  0  0
   33.5918   33.4347   55.2812 C   0  0  0  0  0  0  0  0  0  0  0  0
   33.9522   34.3806   54.4354 N   0  0  0  0  0  0  0  0  0  0  0  0
   33.9320   35.6579   54.7633 C   0  0  0  0  0  0  0  0  0  0  0  0
   33.5277   36.0604   56.0200 C   0  0  0  0  0  0  0  0  0  0  0  0
   32.3127   34.6382   59.2413 N   0  0  0  0  0  0  0  0  0  0  0  0
   31.9768   35.3246   60.3599 C   0  0  0  0  0  0  0  0  0  0  0  0
   31.5137   34.9366   61.6211 C   0  0  0  0  0  0  0  0  0  0  0  0
   31.2536   35.8962   62.5801 C   0  0  0  0  0  0  0  0  0  0  0  0
   30.7883   35.5087   63.8463 N   0  0  0  0  0  0  0  0  0  0  0  0
   29.6360   34.8159   64.1141 C   0  0  0  0  0  0  0  0  0  0  0  0
   29.5777   34.6577   65.4502 C   0  0  0  0  0  0  0  0  0  0  0  0
   30.6618   35.2360   65.9880 N   0  0  0  0  0  0  0  0  0  0  0  0
   31.3975   35.7439   65.0370 C   0  0  0  0  0  0  0  0  0  0  0  0
   32.0615   38.4600   63.9434 H   0  0  0  0  0  0  0  0  0  0  0  0
   30.8495   39.2106   62.8775 H   0  0  0  0  0  0  0  0  0  0  0  0
   30.3658   37.9229   64.0072 H   0  0  0  0  0  0  0  0  0  0  0  0
   32.0546   38.6896   60.8470 H   0  0  0  0  0  0  0  0  0  0  0  0
   32.8911   32.9678   57.2497 H   0  0  0  0  0  0  0  0  0  0  0  0
   33.6239   32.4011   54.9698 H   0  0  0  0  0  0  0  0  0  0  0  0
   34.2357   36.3989   54.0387 H   0  0  0  0  0  0  0  0  0  0  0  0
   33.5130   37.1082   56.2817 H   0  0  0  0  0  0  0  0  0  0  0  0
   31.3643   33.8908   61.8458 H   0  0  0  0  0  0  0  0  0  0  0  0
   28.9140   34.4643   63.3921 H   0  0  0  0  0  0  0  0  0  0  0  0
   28.7938   34.1522   65.9944 H   0  0  0  0  0  0  0  0  0  0  0  0
   32.3327   36.2666   65.1744 H   0  0  0  0  0  0  0  0  0  0  0  0
  1  2  1  0  0  0  0
  1 23  1  0  0  0  0
  1 24  1  0  0  0  0
  1 25  1  0  0  0  0
  2 17  2  0  0  0  0
  2  3  1  0  0  0  0
  3  4  2  0  0  0  0
  3 26  1  0  0  0  0
  4 15  1  0  0  0  0
  4  5  1  0  0  0  0
  5  6  1  0  0  0  0
  5  7  1  0  0  0  0
  7  8  1  0  0  0  0
  7 14  2  0  0  0  0
  8 13  2  0  0  0  0
  8  9  1  0  0  0  0
  9 10  2  0  0  0  0
  9 27  1  0  0  0  0
 10 11  1  0  0  0  0
 10 28  1  0  0  0  0
 11 12  2  0  0  0  0
 12 13  1  0  0  0  0
 12 29  1  0  0  0  0
 13 30  1  0  0  0  0
 14 15  1  0  0  0  0
 15 16  2  0  0  0  0
 16 17  1  0  0  0  0
 16 31  1  0  0  0  0
 17 18  1  0  0  0  0
 18 22  1  0  0  0  0
 18 19  1  0  0  0  0
 19 20  2  0  0  0  0
 19 32  1  0  0  0  0
 20 21  1  0  0  0  0
 20 33  1  0  0  0  0
 21 22  2  0  0  0  0
 22 34  1  0  0  0  0
M  END
$$$$
