ZINC000000006765      none
 OpenBabel11202420153D

 28 29  0  0  0  0  0  0  0  0999 V2000
   31.6997   38.5963   65.8781 C   0  0  0  0  0  0  0  0  0  0  0  0
   32.6171   37.0374   65.7404 S   0  0  0  0  0  0  0  0  0  0  0  0
   32.9629   36.5470   67.0285 O   0  0  0  0  0  0  0  0  0  0  0  0
   33.5848   37.1183   64.7031 O   0  0  0  0  0  0  0  0  0  0  0  0
   31.5026   35.9506   65.1754 N   0  0  0  0  0  0  0  0  0  0  0  0
   31.3363   35.7714   63.7976 C   0  0  0  0  0  0  0  0  0  0  0  0
   30.1980   35.9792   63.1247 C   0  0  0  0  0  0  0  0  0  0  0  0
   30.2763   35.7337   61.7597 C   0  0  0  0  0  0  0  0  0  0  0  0
   31.4754   35.3283   61.3307 C   0  0  0  0  0  0  0  0  0  0  0  0
   31.7854   35.0299   60.0407 O   0  0  0  0  0  0  0  0  0  0  0  0
   32.2496   36.0314   59.2479 C   0  0  0  0  0  0  0  0  0  0  0  0
   32.5842   35.7726   57.9264 C   0  0  0  0  0  0  0  0  0  0  0  0
   33.0508   36.7928   57.1204 C   0  0  0  0  0  0  0  0  0  0  0  0
   33.1952   38.0708   57.6337 C   0  0  0  0  0  0  0  0  0  0  0  0
   33.6575   39.0661   56.8458 F   0  0  0  0  0  0  0  0  0  0  0  0
   32.8667   38.3293   58.9538 C   0  0  0  0  0  0  0  0  0  0  0  0
   32.3948   37.3125   59.7608 C   0  0  0  0  0  0  0  0  0  0  0  0
   32.5933   35.2460   62.6856 S   0  0  0  0  0  0  0  0  0  0  0  0
   32.3642   39.3774   66.2477 H   0  0  0  0  0  0  0  0  0  0  0  0
   31.3157   38.8796   64.8981 H   0  0  0  0  0  0  0  0  0  0  0  0
   30.8682   38.4686   66.5711 H   0  0  0  0  0  0  0  0  0  0  0  0
   30.9650   35.4384   65.7995 H   0  0  0  0  0  0  0  0  0  0  0  0
   29.2899   36.3114   63.6056 H   0  0  0  0  0  0  0  0  0  0  0  0
   29.4334   35.8609   61.0965 H   0  0  0  0  0  0  0  0  0  0  0  0
   32.4759   34.7751   57.5270 H   0  0  0  0  0  0  0  0  0  0  0  0
   33.3078   36.5926   56.0908 H   0  0  0  0  0  0  0  0  0  0  0  0
   32.9798   39.3266   59.3527 H   0  0  0  0  0  0  0  0  0  0  0  0
   32.1393   37.5144   60.7906 H   0  0  0  0  0  0  0  0  0  0  0  0
  1  2  1  0  0  0  0
  1 19  1  0  0  0  0
  1 20  1  0  0  0  0
  1 21  1  0  0  0  0
  2  3  2  0  0  0  0
  2  4  2  0  0  0  0
  2  5  1  0  0  0  0
  5  6  1  0  0  0  0
  5 22  1  0  0  0  0
  6 18  1  0  0  0  0
  6  7  2  0  0  0  0
  7  8  1  0  0  0  0
  7 23  1  0  0  0  0
  8  9  2  0  0  0  0
  8 24  1  0  0  0  0
  9 10  1  0  0  0  0
  9 18  1  0  0  0  0
 10 11  1  0  0  0  0
 11 17  2  0  0  0  0
 11 12  1  0  0  0  0
 12 13  2  0  0  0  0
 12 25  1  0  0  0  0
 13 14  1  0  0  0  0
 13 26  1  0  0  0  0
 14 15  1  0  0  0  0
 14 16  2  0  0  0  0
 16 17  1  0  0  0  0
 16 27  1  0  0  0  0
 17 28  1  0  0  0  0
M  END
$$$$
