ZINC000000054464      none
 OpenBabel11202420153D

 13 13  0  0  0  0  0  0  0  0999 V2000
   35.1896   41.6915   52.8338 C   0  0  0  0  0  0  0  0  0  0  0  0
   34.7211   40.8593   53.8969 O   0  0  0  0  0  0  0  0  0  0  0  0
   34.8099   39.5163   53.7137 C   0  0  0  0  0  0  0  0  0  0  0  0
   35.3034   39.0089   52.6249 N   0  0  0  0  0  0  0  0  0  0  0  0
   35.2549   37.3211   52.7684 S   0  0  0  0  0  0  0  0  0  0  0  0
   34.5510   37.2905   54.3374 C   0  0  0  0  0  0  0  0  0  0  0  0
   34.1046   35.7657   55.3627 Br  0  0  0  0  0  0  0  0  0  0  0  0
   34.3803   38.6141   54.6899 C   0  0  0  0  0  0  0  0  0  0  0  0
   33.8158   39.0243   55.9403 C   0  0  0  0  0  0  0  0  0  0  0  0
   33.3680   39.3497   56.9323 N   0  0  0  0  0  0  0  0  0  0  0  0
   35.0617   42.7384   53.1085 H   0  0  0  0  0  0  0  0  0  0  0  0
   36.2455   41.4897   52.6529 H   0  0  0  0  0  0  0  0  0  0  0  0
   34.6193   41.4808   51.9292 H   0  0  0  0  0  0  0  0  0  0  0  0
  1  2  1  0  0  0  0
  1 11  1  0  0  0  0
  1 12  1  0  0  0  0
  1 13  1  0  0  0  0
  2  3  1  0  0  0  0
  3  8  1  0  0  0  0
  3  4  2  0  0  0  0
  4  5  1  0  0  0  0
  5  6  1  0  0  0  0
  6  7  1  0  0  0  0
  6  8  2  0  0  0  0
  8  9  1  0  0  0  0
  9 10  3  0  0  0  0
M  END
$$$$
