ZINC000000033985      none
 OpenBabel11202420153D

 24 25  0  0  0  0  0  0  0  0999 V2000
   34.1922   39.8552   56.1806 C   0  0  0  0  0  0  0  0  0  0  0  0
   33.6189   38.8500   57.1461 C   0  0  0  0  0  0  0  0  0  0  0  0
   33.2513   39.2188   58.4008 C   0  0  0  0  0  0  0  0  0  0  0  0
   32.7170   38.2595   59.2854 C   0  0  0  0  0  0  0  0  0  0  0  0
   32.3917   38.6034   60.4076 O   0  0  0  0  0  0  0  0  0  0  0  0
   32.5578   36.9771   58.9225 O   0  0  0  0  0  0  0  0  0  0  0  0
   32.8981   36.5463   57.6889 C   0  0  0  0  0  0  0  0  0  0  0  0
   32.7321   35.2166   57.3316 C   0  0  0  0  0  0  0  0  0  0  0  0
   32.1557   34.2348   58.3191 C   0  0  0  0  0  0  0  0  0  0  0  0
   33.0924   34.7950   56.0624 C   0  0  0  0  0  0  0  0  0  0  0  0
   32.9251   33.4941   55.7124 O   0  0  0  0  0  0  0  0  0  0  0  0
   33.6258   35.6952   55.1418 C   0  0  0  0  0  0  0  0  0  0  0  0
   33.8011   37.0059   55.4788 C   0  0  0  0  0  0  0  0  0  0  0  0
   33.4426   37.4494   56.7570 C   0  0  0  0  0  0  0  0  0  0  0  0
   33.3842   40.3110   55.6083 H   0  0  0  0  0  0  0  0  0  0  0  0
   34.7257   40.6275   56.7345 H   0  0  0  0  0  0  0  0  0  0  0  0
   34.8812   39.3540   55.5007 H   0  0  0  0  0  0  0  0  0  0  0  0
   33.3684   40.2438   58.7200 H   0  0  0  0  0  0  0  0  0  0  0  0
   32.9628   33.7843   58.8968 H   0  0  0  0  0  0  0  0  0  0  0  0
   31.6140   33.4557   57.7828 H   0  0  0  0  0  0  0  0  0  0  0  0
   31.4734   34.7544   58.9919 H   0  0  0  0  0  0  0  0  0  0  0  0
   33.2034   33.2910   54.8089 H   0  0  0  0  0  0  0  0  0  0  0  0
   33.9026   35.3532   54.1555 H   0  0  0  0  0  0  0  0  0  0  0  0
   34.2149   37.6990   54.7612 H   0  0  0  0  0  0  0  0  0  0  0  0
  1  2  1  0  0  0  0
  1 15  1  0  0  0  0
  1 16  1  0  0  0  0
  1 17  1  0  0  0  0
  2 14  1  0  0  0  0
  2  3  2  0  0  0  0
  3  4  1  0  0  0  0
  3 18  1  0  0  0  0
  4  5  2  0  0  0  0
  4  6  1  0  0  0  0
  6  7  1  0  0  0  0
  7 14  2  0  0  0  0
  7  8  1  0  0  0  0
  8  9  1  0  0  0  0
  8 10  2  0  0  0  0
  9 19  1  0  0  0  0
  9 20  1  0  0  0  0
  9 21  1  0  0  0  0
 10 11  1  0  0  0  0
 10 12  1  0  0  0  0
 11 22  1  0  0  0  0
 12 13  2  0  0  0  0
 12 23  1  0  0  0  0
 13 14  1  0  0  0  0
 13 24  1  0  0  0  0
M  END
$$$$
