ZINC000000007312      none
 OpenBabel11202420153D

 37 40  0  0  0  0  0  0  0  0999 V2000
   32.9078   36.9030   68.8380 N   0  0  0  0  0  0  0  0  0  0  0  0
   32.4846   36.4671   67.5937 C   0  0  0  0  0  0  0  0  0  0  0  0
   33.1850   36.8182   66.5227 N   0  0  0  0  0  0  0  0  0  0  0  0
   32.8170   36.4231   65.3077 C   0  0  0  0  0  0  0  0  0  0  0  0
   33.5474   36.7901   64.1922 N   0  0  0  0  0  0  0  0  0  0  0  0
   31.6704   35.6252   65.1847 C   0  0  0  0  0  0  0  0  0  0  0  0
   30.9494   35.0008   64.0727 C   0  0  0  0  0  0  0  0  0  0  0  0
   31.3043   35.0705   62.6098 C   0  0  0  0  0  0  0  0  0  0  0  0
   31.7268   36.7791   62.1707 S   0  0  0  0  0  0  0  0  0  0  0  0
   32.1068   36.6649   60.4540 C   0  0  0  0  0  0  0  0  0  0  0  0
   32.0255   35.4251   59.8067 C   0  0  0  0  0  0  0  0  0  0  0  0
   32.3128   35.3082   58.4839 C   0  0  0  0  0  0  0  0  0  0  0  0
   32.6979   36.4421   57.7468 C   0  0  0  0  0  0  0  0  0  0  0  0
   33.0006   36.3502   56.3777 C   0  0  0  0  0  0  0  0  0  0  0  0
   33.3704   37.4667   55.6924 C   0  0  0  0  0  0  0  0  0  0  0  0
   33.4541   38.7042   56.3279 C   0  0  0  0  0  0  0  0  0  0  0  0
   33.1680   38.8321   57.6524 C   0  0  0  0  0  0  0  0  0  0  0  0
   32.7825   37.7009   58.3932 C   0  0  0  0  0  0  0  0  0  0  0  0
   32.4805   37.7962   59.7611 C   0  0  0  0  0  0  0  0  0  0  0  0
   29.9068   34.3599   64.6193 C   0  0  0  0  0  0  0  0  0  0  0  0
   29.9165   34.5190   65.9564 O   0  0  0  0  0  0  0  0  0  0  0  0
   30.9572   35.2755   66.3430 C   0  0  0  0  0  0  0  0  0  0  0  0
   31.3984   35.7162   67.5184 N   0  0  0  0  0  0  0  0  0  0  0  0
   32.4098   36.6570   69.6333 H   0  0  0  0  0  0  0  0  0  0  0  0
   33.7020   37.4545   68.9145 H   0  0  0  0  0  0  0  0  0  0  0  0
   33.2686   36.4949   63.3113 H   0  0  0  0  0  0  0  0  0  0  0  0
   34.3388   37.3424   64.2907 H   0  0  0  0  0  0  0  0  0  0  0  0
   30.4534   34.7418   62.0132 H   0  0  0  0  0  0  0  0  0  0  0  0
   32.1585   34.4229   62.4119 H   0  0  0  0  0  0  0  0  0  0  0  0
   31.7347   34.5494   60.3679 H   0  0  0  0  0  0  0  0  0  0  0  0
   32.2455   34.3454   57.9990 H   0  0  0  0  0  0  0  0  0  0  0  0
   32.9406   35.3980   55.8716 H   0  0  0  0  0  0  0  0  0  0  0  0
   33.6021   37.3924   54.6402 H   0  0  0  0  0  0  0  0  0  0  0  0
   33.7500   39.5746   55.7611 H   0  0  0  0  0  0  0  0  0  0  0  0
   33.2371   39.7973   58.1318 H   0  0  0  0  0  0  0  0  0  0  0  0
   32.5410   38.7487   60.2667 H   0  0  0  0  0  0  0  0  0  0  0  0
   29.1686   33.7963   64.0683 H   0  0  0  0  0  0  0  0  0  0  0  0
  1  2  1  0  0  0  0
  1 24  1  0  0  0  0
  1 25  1  0  0  0  0
  2 23  2  0  0  0  0
  2  3  1  0  0  0  0
  3  4  2  0  0  0  0
  4  5  1  0  0  0  0
  4  6  1  0  0  0  0
  5 26  1  0  0  0  0
  5 27  1  0  0  0  0
  6 22  2  0  0  0  0
  6  7  1  0  0  0  0
  7  8  1  0  0  0  0
  7 20  2  0  0  0  0
  8  9  1  0  0  0  0
  8 28  1  0  0  0  0
  8 29  1  0  0  0  0
  9 10  1  0  0  0  0
 10 19  2  0  0  0  0
 10 11  1  0  0  0  0
 11 12  2  0  0  0  0
 11 30  1  0  0  0  0
 12 13  1  0  0  0  0
 12 31  1  0  0  0  0
 13 18  2  0  0  0  0
 13 14  1  0  0  0  0
 14 15  2  0  0  0  0
 14 32  1  0  0  0  0
 15 16  1  0  0  0  0
 15 33  1  0  0  0  0
 16 17  2  0  0  0  0
 16 34  1  0  0  0  0
 17 18  1  0  0  0  0
 17 35  1  0  0  0  0
 18 19  1  0  0  0  0
 19 36  1  0  0  0  0
 20 21  1  0  0  0  0
 20 37  1  0  0  0  0
 21 22  1  0  0  0  0
 22 23  1  0  0  0  0
M  END
$$$$
