ZINC000000046573      none
 OpenBabel11202420153D

 42 44  0  0  1  0  0  0  0  0999 V2000
   32.6872   33.0457   60.6331 C   0  0  0  0  0  0  0  0  0  0  0  0
   31.9314   33.8924   61.6591 C   0  0  0  0  0  0  0  0  0  0  0  0
   31.3954   35.0753   61.0099 O   0  0  0  0  0  0  0  0  0  0  0  0
   31.8072   36.2651   61.4751 C   0  0  0  0  0  0  0  0  0  0  0  0
   32.5897   36.3165   62.3943 O   0  0  0  0  0  0  0  0  0  0  0  0
   31.2937   37.5370   60.8508 C   0  0  1  0  0  0  0  0  0  0  0  0
   30.6036   37.2926   60.0433 H   0  0  0  0  0  0  0  0  0  0  0  0
   30.5656   38.3673   61.9100 C   0  0  0  0  0  0  0  0  0  0  0  0
   32.3913   38.2883   60.3284 O   0  0  0  0  0  0  0  0  0  0  0  0
   32.7484   38.0441   59.0408 C   0  0  0  0  0  0  0  0  0  0  0  0
   32.5510   36.7789   58.4968 C   0  0  0  0  0  0  0  0  0  0  0  0
   32.9161   36.5234   57.1939 C   0  0  0  0  0  0  0  0  0  0  0  0
   33.4731   37.5379   56.4162 C   0  0  0  0  0  0  0  0  0  0  0  0
   33.6680   38.8163   56.9589 C   0  0  0  0  0  0  0  0  0  0  0  0
   34.2064   39.8137   56.2219 O   0  0  0  0  0  0  0  0  0  0  0  0
   34.5841   39.6536   54.9437 C   0  0  0  0  0  0  0  0  0  0  0  0
   35.0622   40.5895   54.3322 O   0  0  0  0  0  0  0  0  0  0  0  0
   34.4226   38.3522   54.2802 C   0  0  0  0  0  0  0  0  0  0  0  0
   34.8038   38.1514   52.9551 C   0  0  0  0  0  0  0  0  0  0  0  0
   34.6312   36.9111   52.3777 C   0  0  0  0  0  0  0  0  0  0  0  0
   34.0820   35.8637   53.1027 C   0  0  0  0  0  0  0  0  0  0  0  0
   33.6988   36.0429   54.4164 C   0  0  0  0  0  0  0  0  0  0  0  0
   33.8646   37.2854   55.0162 C   0  0  0  0  0  0  0  0  0  0  0  0
   33.3007   39.0574   58.2763 C   0  0  0  0  0  0  0  0  0  0  0  0
   33.5033   40.4255   58.8749 C   0  0  0  0  0  0  0  0  0  0  0  0
   32.0059   32.7459   59.8369 H   0  0  0  0  0  0  0  0  0  0  0  0
   33.5046   33.6303   60.2111 H   0  0  0  0  0  0  0  0  0  0  0  0
   33.0897   32.1576   61.1205 H   0  0  0  0  0  0  0  0  0  0  0  0
   32.6127   34.1923   62.4555 H   0  0  0  0  0  0  0  0  0  0  0  0
   31.1140   33.3077   62.0814 H   0  0  0  0  0  0  0  0  0  0  0  0
   30.1941   39.2872   61.4584 H   0  0  0  0  0  0  0  0  0  0  0  0
   29.7284   37.7942   62.3084 H   0  0  0  0  0  0  0  0  0  0  0  0
   31.2558   38.6117   62.7174 H   0  0  0  0  0  0  0  0  0  0  0  0
   32.1154   35.9950   59.0985 H   0  0  0  0  0  0  0  0  0  0  0  0
   32.7672   35.5398   56.7735 H   0  0  0  0  0  0  0  0  0  0  0  0
   35.2314   38.9620   52.3838 H   0  0  0  0  0  0  0  0  0  0  0  0
   34.9261   36.7537   51.3507 H   0  0  0  0  0  0  0  0  0  0  0  0
   33.9536   34.8989   52.6349 H   0  0  0  0  0  0  0  0  0  0  0  0
   33.2720   35.2228   54.9746 H   0  0  0  0  0  0  0  0  0  0  0  0
   32.6127   41.0311   58.7068 H   0  0  0  0  0  0  0  0  0  0  0  0
   33.6812   40.3306   59.9460 H   0  0  0  0  0  0  0  0  0  0  0  0
   34.3623   40.9041   58.4047 H   0  0  0  0  0  0  0  0  0  0  0  0
  1  2  1  0  0  0  0
  1 26  1  0  0  0  0
  1 27  1  0  0  0  0
  1 28  1  0  0  0  0
  2  3  1  0  0  0  0
  2 29  1  0  0  0  0
  2 30  1  0  0  0  0
  3  4  1  0  0  0  0
  4  5  2  0  0  0  0
  4  6  1  0  0  0  0
  6  7  1  6  0  0  0
  6  8  1  0  0  0  0
  6  9  1  0  0  0  0
  8 31  1  0  0  0  0
  8 32  1  0  0  0  0
  8 33  1  0  0  0  0
  9 10  1  0  0  0  0
 10 24  2  0  0  0  0
 10 11  1  0  0  0  0
 11 12  2  0  0  0  0
 11 34  1  0  0  0  0
 12 13  1  0  0  0  0
 12 35  1  0  0  0  0
 13 23  1  0  0  0  0
 13 14  2  0  0  0  0
 14 15  1  0  0  0  0
 14 24  1  0  0  0  0
 15 16  1  0  0  0  0
 16 17  2  0  0  0  0
 16 18  1  0  0  0  0
 18 23  2  0  0  0  0
 18 19  1  0  0  0  0
 19 20  2  0  0  0  0
 19 36  1  0  0  0  0
 20 21  1  0  0  0  0
 20 37  1  0  0  0  0
 21 22  2  0  0  0  0
 21 38  1  0  0  0  0
 22 23  1  0  0  0  0
 22 39  1  0  0  0  0
 24 25  1  0  0  0  0
 25 40  1  0  0  0  0
 25 41  1  0  0  0  0
 25 42  1  0  0  0  0
M  END
$$$$
