ZINC000000048288      none
 OpenBabel11202420153D

 33 34  0  0  0  0  0  0  0  0999 V2000
   34.7945   31.8722   53.9655 C   0  0  0  0  0  0  0  0  0  0  0  0
   34.4207   32.6156   55.1555 O   0  0  0  0  0  0  0  0  0  0  0  0
   33.6896   33.7334   54.9742 C   0  0  0  0  0  0  0  0  0  0  0  0
   33.3730   34.0773   53.8522 O   0  0  0  0  0  0  0  0  0  0  0  0
   33.2747   34.5372   56.1345 C   0  0  0  0  0  0  0  0  0  0  0  0
   33.0536   33.9221   57.3721 C   0  0  0  0  0  0  0  0  0  0  0  0
   32.6680   34.6689   58.4485 C   0  0  0  0  0  0  0  0  0  0  0  0
   32.3956   33.8990   59.9804 Cl  0  0  0  0  0  0  0  0  0  0  0  0
   32.4865   36.0456   58.3220 C   0  0  0  0  0  0  0  0  0  0  0  0
   32.0869   36.7973   59.4252 N   0  0  0  0  0  0  0  0  0  0  0  0
   30.9169   36.5269   60.0371 C   0  0  0  0  0  0  0  0  0  0  0  0
   30.2093   35.6260   59.6261 O   0  0  0  0  0  0  0  0  0  0  0  0
   30.4967   37.3178   61.1977 C   0  0  0  0  0  0  0  0  0  0  0  0
   29.3390   37.1543   61.9036 C   0  0  0  0  0  0  0  0  0  0  0  0
   29.3499   38.1171   62.9249 C   0  0  0  0  0  0  0  0  0  0  0  0
   30.4947   38.8231   62.7939 C   0  0  0  0  0  0  0  0  0  0  0  0
   31.1830   38.3386   61.7520 O   0  0  0  0  0  0  0  0  0  0  0  0
   32.7075   36.6710   57.1021 C   0  0  0  0  0  0  0  0  0  0  0  0
   33.0986   35.9239   56.0043 C   0  0  0  0  0  0  0  0  0  0  0  0
   33.3110   36.5286   54.8086 O   0  0  0  0  0  0  0  0  0  0  0  0
   34.6338   37.0021   54.5471 C   0  0  0  0  0  0  0  0  0  0  0  0
   33.8949   31.5518   53.4398 H   0  0  0  0  0  0  0  0  0  0  0  0
   35.3901   32.5089   53.3114 H   0  0  0  0  0  0  0  0  0  0  0  0
   35.3788   30.9978   54.2519 H   0  0  0  0  0  0  0  0  0  0  0  0
   33.1884   32.8557   57.4760 H   0  0  0  0  0  0  0  0  0  0  0  0
   32.6510   37.5154   59.7527 H   0  0  0  0  0  0  0  0  0  0  0  0
   28.5659   36.4244   61.7140 H   0  0  0  0  0  0  0  0  0  0  0  0
   28.5850   38.2681   63.6724 H   0  0  0  0  0  0  0  0  0  0  0  0
   30.8036   39.6432   63.4250 H   0  0  0  0  0  0  0  0  0  0  0  0
   32.5703   37.7381   57.0088 H   0  0  0  0  0  0  0  0  0  0  0  0
   35.3323   36.1660   54.5807 H   0  0  0  0  0  0  0  0  0  0  0  0
   34.6661   37.4632   53.5600 H   0  0  0  0  0  0  0  0  0  0  0  0
   34.9119   37.7384   55.3013 H   0  0  0  0  0  0  0  0  0  0  0  0
  1  2  1  0  0  0  0
  1 22  1  0  0  0  0
  1 23  1  0  0  0  0
  1 24  1  0  0  0  0
  2  3  1  0  0  0  0
  3  4  2  0  0  0  0
  3  5  1  0  0  0  0
  5 19  2  0  0  0  0
  5  6  1  0  0  0  0
  6  7  2  0  0  0  0
  6 25  1  0  0  0  0
  7  8  1  0  0  0  0
  7  9  1  0  0  0  0
  9 10  1  0  0  0  0
  9 18  2  0  0  0  0
 10 11  1  0  0  0  0
 10 26  1  0  0  0  0
 11 12  2  0  0  0  0
 11 13  1  0  0  0  0
 13 17  1  0  0  0  0
 13 14  2  0  0  0  0
 14 15  1  0  0  0  0
 14 27  1  0  0  0  0
 15 16  2  0  0  0  0
 15 28  1  0  0  0  0
 16 17  1  0  0  0  0
 16 29  1  0  0  0  0
 18 19  1  0  0  0  0
 18 30  1  0  0  0  0
 19 20  1  0  0  0  0
 20 21  1  0  0  0  0
 21 31  1  0  0  0  0
 21 32  1  0  0  0  0
 21 33  1  0  0  0  0
M  END
$$$$
