ZINC000000031356      none
 OpenBabel11202420163D

 35 37  0  0  0  0  0  0  0  0999 V2000
   31.8586   35.2930   58.3476 O   0  0  0  0  0  0  0  0  0  0  0  0
   32.5097   36.3024   58.1817 C   0  0  0  0  0  0  0  0  0  0  0  0
   32.5090   37.3810   59.2343 C   0  0  0  0  0  0  0  0  0  0  0  0
   32.3102   36.7813   60.5416 O   0  0  0  0  0  0  0  0  0  0  0  0
   31.0386   36.6499   60.9674 C   0  0  0  0  0  0  0  0  0  0  0  0
   30.1922   37.4439   60.6074 O   0  0  0  0  0  0  0  0  0  0  0  0
   30.6740   35.5421   61.8703 C   0  0  0  0  0  0  0  0  0  0  0  0
   31.3689   34.3311   61.8095 C   0  0  0  0  0  0  0  0  0  0  0  0
   31.0306   33.2997   62.6574 C   0  0  0  0  0  0  0  0  0  0  0  0
   29.9931   33.4546   63.5676 C   0  0  0  0  0  0  0  0  0  0  0  0
   29.2952   34.6614   63.6334 C   0  0  0  0  0  0  0  0  0  0  0  0
   29.6329   35.7009   62.7893 C   0  0  0  0  0  0  0  0  0  0  0  0
   28.3386   34.5588   64.6022 O   0  0  0  0  0  0  0  0  0  0  0  0
   28.1880   33.1475   64.8444 C   0  0  0  0  0  0  0  0  0  0  0  0
   29.4727   32.6005   64.4944 O   0  0  0  0  0  0  0  0  0  0  0  0
   33.3008   36.4743   56.9526 C   0  0  0  0  0  0  0  0  0  0  0  0
   33.8333   35.3590   56.2977 C   0  0  0  0  0  0  0  0  0  0  0  0
   34.5692   35.5279   55.1442 C   0  0  0  0  0  0  0  0  0  0  0  0
   34.7908   36.7979   54.6399 C   0  0  0  0  0  0  0  0  0  0  0  0
   34.2712   37.9066   55.2847 C   0  0  0  0  0  0  0  0  0  0  0  0
   34.5136   39.2601   54.7368 N   0  0  0  0  0  0  0  0  0  0  0  0
   35.1696   39.3970   53.7198 O   0  0  0  0  0  0  0  0  0  0  0  0
   34.0570   40.2371   55.3031 O   0  0  0  0  0  0  0  0  0  0  0  0
   33.5286   37.7538   56.4367 C   0  0  0  0  0  0  0  0  0  0  0  0
   31.7027   38.0860   59.0315 H   0  0  0  0  0  0  0  0  0  0  0  0
   33.4638   37.9063   59.2169 H   0  0  0  0  0  0  0  0  0  0  0  0
   32.1737   34.2052   61.1005 H   0  0  0  0  0  0  0  0  0  0  0  0
   31.5718   32.3662   62.6120 H   0  0  0  0  0  0  0  0  0  0  0  0
   29.0937   36.6354   62.8395 H   0  0  0  0  0  0  0  0  0  0  0  0
   27.4079   32.7309   64.2073 H   0  0  0  0  0  0  0  0  0  0  0  0
   27.9658   32.9610   65.8951 H   0  0  0  0  0  0  0  0  0  0  0  0
   33.6654   34.3679   56.6926 H   0  0  0  0  0  0  0  0  0  0  0  0
   34.9777   34.6674   54.6350 H   0  0  0  0  0  0  0  0  0  0  0  0
   35.3718   36.9241   53.7383 H   0  0  0  0  0  0  0  0  0  0  0  0
   33.1238   38.6201   56.9388 H   0  0  0  0  0  0  0  0  0  0  0  0
  1  2  2  0  0  0  0
  2  3  1  0  0  0  0
  2 16  1  0  0  0  0
  3  4  1  0  0  0  0
  3 25  1  0  0  0  0
  3 26  1  0  0  0  0
  4  5  1  0  0  0  0
  5  6  2  0  0  0  0
  5  7  1  0  0  0  0
  7 12  2  0  0  0  0
  7  8  1  0  0  0  0
  8  9  2  0  0  0  0
  8 27  1  0  0  0  0
  9 10  1  0  0  0  0
  9 28  1  0  0  0  0
 10 15  1  0  0  0  0
 10 11  2  0  0  0  0
 11 12  1  0  0  0  0
 11 13  1  0  0  0  0
 12 29  1  0  0  0  0
 13 14  1  0  0  0  0
 14 15  1  0  0  0  0
 14 30  1  0  0  0  0
 14 31  1  0  0  0  0
 16 24  2  0  0  0  0
 16 17  1  0  0  0  0
 17 18  2  0  0  0  0
 17 32  1  0  0  0  0
 18 19  1  0  0  0  0
 18 33  1  0  0  0  0
 19 20  2  0  0  0  0
 19 34  1  0  0  0  0
 20 21  1  0  0  0  0
 20 24  1  0  0  0  0
 21 22  2  0  0  0  0
 21 23  2  0  0  0  0
 24 35  1  0  0  0  0
M  END
$$$$
