ZINC000000040250      none
 OpenBabel11202420153D

 24 25  0  0  0  0  0  0  0  0999 V2000
   33.5141   36.4964   66.9699 O   0  0  0  0  0  0  0  0  0  0  0  0
   33.2297   37.2156   66.0336 C   0  0  0  0  0  0  0  0  0  0  0  0
   32.2146   36.8299   65.1294 C   0  0  0  0  0  0  0  0  0  0  0  0
   31.4721   35.6672   65.1869 C   0  0  0  0  0  0  0  0  0  0  0  0
   30.5898   35.7036   64.0990 C   0  0  0  0  0  0  0  0  0  0  0  0
   30.8211   36.8588   63.4341 C   0  0  0  0  0  0  0  0  0  0  0  0
   29.9745   37.3907   61.9831 S   0  0  0  0  0  0  0  0  0  0  0  0
   29.6877   38.7699   62.1688 O   0  0  0  0  0  0  0  0  0  0  0  0
   28.9730   36.4167   61.7233 O   0  0  0  0  0  0  0  0  0  0  0  0
   31.1193   37.2959   60.6470 C   0  0  0  0  0  0  0  0  0  0  0  0
   31.9105   38.3860   60.3361 C   0  0  0  0  0  0  0  0  0  0  0  0
   32.8045   38.3135   59.2842 C   0  0  0  0  0  0  0  0  0  0  0  0
   32.9150   37.1474   58.5502 C   0  0  0  0  0  0  0  0  0  0  0  0
   32.1238   36.0574   58.8611 C   0  0  0  0  0  0  0  0  0  0  0  0
   31.2260   36.1316   59.9096 C   0  0  0  0  0  0  0  0  0  0  0  0
   31.8002   37.5303   64.0520 O   0  0  0  0  0  0  0  0  0  0  0  0
   33.7524   38.1499   65.8923 H   0  0  0  0  0  0  0  0  0  0  0  0
   31.5553   34.8834   65.9253 H   0  0  0  0  0  0  0  0  0  0  0  0
   29.8609   34.9501   63.8397 H   0  0  0  0  0  0  0  0  0  0  0  0
   31.8268   39.2958   60.9120 H   0  0  0  0  0  0  0  0  0  0  0  0
   33.4195   39.1666   59.0385 H   0  0  0  0  0  0  0  0  0  0  0  0
   33.6162   37.0895   57.7309 H   0  0  0  0  0  0  0  0  0  0  0  0
   32.2069   35.1478   58.2848 H   0  0  0  0  0  0  0  0  0  0  0  0
   30.6077   35.2800   60.1523 H   0  0  0  0  0  0  0  0  0  0  0  0
  1  2  2  0  0  0  0
  2  3  1  0  0  0  0
  2 17  1  0  0  0  0
  3 16  1  0  0  0  0
  3  4  2  0  0  0  0
  4  5  1  0  0  0  0
  4 18  1  0  0  0  0
  5  6  2  0  0  0  0
  5 19  1  0  0  0  0
  6  7  1  0  0  0  0
  6 16  1  0  0  0  0
  7  8  2  0  0  0  0
  7  9  2  0  0  0  0
  7 10  1  0  0  0  0
 10 15  2  0  0  0  0
 10 11  1  0  0  0  0
 11 12  2  0  0  0  0
 11 20  1  0  0  0  0
 12 13  1  0  0  0  0
 12 21  1  0  0  0  0
 13 14  2  0  0  0  0
 13 22  1  0  0  0  0
 14 15  1  0  0  0  0
 14 23  1  0  0  0  0
 15 24  1  0  0  0  0
M  END
$$$$
