ZINC000000000725      none
 OpenBabel11202420153D

 24 24  0  0  1  0  0  0  0  0999 V2000
   32.2749   35.6988   64.4986 N   0  0  0  0  0  0  0  0  0  0  0  0
   32.2857   36.5597   63.4617 C   0  0  0  0  0  0  0  0  0  0  0  0
   32.4150   37.7511   63.6627 O   0  0  0  0  0  0  0  0  0  0  0  0
   32.1531   36.0999   62.2032 O   0  0  0  0  0  0  0  0  0  0  0  0
   32.1737   37.0843   61.1361 C   0  0  0  0  0  0  0  0  0  0  0  0
   32.0111   36.3787   59.7882 C   0  0  1  0  0  0  0  0  0  0  0  0
   32.5870   35.4534   59.7907 H   0  0  0  0  0  0  0  0  0  0  0  0
   30.6306   36.0802   59.5705 O   0  0  0  0  0  0  0  0  0  0  0  0
   32.5102   37.2782   58.6870 C   0  0  0  0  0  0  0  0  0  0  0  0
   33.0539   36.7304   57.5402 C   0  0  0  0  0  0  0  0  0  0  0  0
   33.5078   37.5555   56.5282 C   0  0  0  0  0  0  0  0  0  0  0  0
   33.4264   38.9285   56.6669 C   0  0  0  0  0  0  0  0  0  0  0  0
   32.8875   39.4763   57.8160 C   0  0  0  0  0  0  0  0  0  0  0  0
   32.4296   38.6512   58.8262 C   0  0  0  0  0  0  0  0  0  0  0  0
   32.1718   34.7477   64.3381 H   0  0  0  0  0  0  0  0  0  0  0  0
   32.3705   36.0301   65.4051 H   0  0  0  0  0  0  0  0  0  0  0  0
   33.1230   37.6196   61.1538 H   0  0  0  0  0  0  0  0  0  0  0  0
   31.3556   37.7906   61.2776 H   0  0  0  0  0  0  0  0  0  0  0  0
   30.4528   35.6311   58.7328 H   0  0  0  0  0  0  0  0  0  0  0  0
   33.1209   35.6578   57.4334 H   0  0  0  0  0  0  0  0  0  0  0  0
   33.9286   37.1275   55.6303 H   0  0  0  0  0  0  0  0  0  0  0  0
   33.7835   39.5732   55.8774 H   0  0  0  0  0  0  0  0  0  0  0  0
   32.8238   40.5490   57.9243 H   0  0  0  0  0  0  0  0  0  0  0  0
   32.0087   39.0792   59.7239 H   0  0  0  0  0  0  0  0  0  0  0  0
  1  2  1  0  0  0  0
  1 15  1  0  0  0  0
  1 16  1  0  0  0  0
  2  3  2  0  0  0  0
  2  4  1  0  0  0  0
  4  5  1  0  0  0  0
  5  6  1  0  0  0  0
  5 17  1  0  0  0  0
  5 18  1  0  0  0  0
  6  7  1  1  0  0  0
  6  8  1  0  0  0  0
  6  9  1  0  0  0  0
  8 19  1  0  0  0  0
  9 14  2  0  0  0  0
  9 10  1  0  0  0  0
 10 11  2  0  0  0  0
 10 20  1  0  0  0  0
 11 12  1  0  0  0  0
 11 21  1  0  0  0  0
 12 13  2  0  0  0  0
 12 22  1  0  0  0  0
 13 14  1  0  0  0  0
 13 23  1  0  0  0  0
 14 24  1  0  0  0  0
M  END
$$$$
