ZINC000000034755      none
 OpenBabel11202420153D

 28 29  0  0  0  0  0  0  0  0999 V2000
   31.5746   33.4691   59.1664 C   0  0  0  0  0  0  0  0  0  0  0  0
   32.0706   34.6734   58.4955 N   0  0  0  0  0  0  0  0  0  0  0  0
   32.4582   34.6099   57.1874 C   0  0  0  0  0  0  0  0  0  0  0  0
   32.3452   33.0628   56.3520 S   0  0  0  0  0  0  0  0  0  0  0  0
   33.7074   33.2416   55.1738 C   0  0  0  0  0  0  0  0  0  0  0  0
   34.9779   32.7161   55.7911 C   0  0  0  0  0  0  0  0  0  0  0  0
   35.6379   31.6953   55.2091 N   0  0  0  0  0  0  0  0  0  0  0  0
   35.4063   33.2118   56.8117 O   0  0  0  0  0  0  0  0  0  0  0  0
   32.9106   35.6459   56.5249 N   0  0  0  0  0  0  0  0  0  0  0  0
   33.0238   36.8591   57.1017 C   0  0  0  0  0  0  0  0  0  0  0  0
   33.5055   37.9648   56.3946 C   0  0  0  0  0  0  0  0  0  0  0  0
   33.6043   39.1762   57.0188 C   0  0  0  0  0  0  0  0  0  0  0  0
   33.2316   39.3276   58.3483 C   0  0  0  0  0  0  0  0  0  0  0  0
   32.7559   38.2652   59.0662 C   0  0  0  0  0  0  0  0  0  0  0  0
   32.6451   37.0174   58.4545 C   0  0  0  0  0  0  0  0  0  0  0  0
   32.1360   35.8423   59.1745 C   0  0  0  0  0  0  0  0  0  0  0  0
   31.7901   35.9163   60.3393 O   0  0  0  0  0  0  0  0  0  0  0  0
   32.4089   32.9406   59.6277 H   0  0  0  0  0  0  0  0  0  0  0  0
   30.8543   33.7515   59.9342 H   0  0  0  0  0  0  0  0  0  0  0  0
   31.0917   32.8193   58.4365 H   0  0  0  0  0  0  0  0  0  0  0  0
   33.4822   32.6763   54.2694 H   0  0  0  0  0  0  0  0  0  0  0  0
   33.8344   34.2945   54.9221 H   0  0  0  0  0  0  0  0  0  0  0  0
   35.2953   31.2989   54.3928 H   0  0  0  0  0  0  0  0  0  0  0  0
   36.4556   31.3572   55.6064 H   0  0  0  0  0  0  0  0  0  0  0  0
   33.7996   37.8616   55.3605 H   0  0  0  0  0  0  0  0  0  0  0  0
   33.9771   40.0285   56.4704 H   0  0  0  0  0  0  0  0  0  0  0  0
   33.3182   40.2951   58.8204 H   0  0  0  0  0  0  0  0  0  0  0  0
   32.4684   38.3919   60.0994 H   0  0  0  0  0  0  0  0  0  0  0  0
  1  2  1  0  0  0  0
  1 18  1  0  0  0  0
  1 19  1  0  0  0  0
  1 20  1  0  0  0  0
  2 16  1  0  0  0  0
  2  3  1  0  0  0  0
  3  4  1  0  0  0  0
  3  9  2  0  0  0  0
  4  5  1  0  0  0  0
  5  6  1  0  0  0  0
  5 21  1  0  0  0  0
  5 22  1  0  0  0  0
  6  7  1  0  0  0  0
  6  8  2  0  0  0  0
  7 23  1  0  0  0  0
  7 24  1  0  0  0  0
  9 10  1  0  0  0  0
 10 15  2  0  0  0  0
 10 11  1  0  0  0  0
 11 12  2  0  0  0  0
 11 25  1  0  0  0  0
 12 13  1  0  0  0  0
 12 26  1  0  0  0  0
 13 14  2  0  0  0  0
 13 27  1  0  0  0  0
 14 15  1  0  0  0  0
 14 28  1  0  0  0  0
 15 16  1  0  0  0  0
 16 17  2  0  0  0  0
M  END
$$$$
