ZINC000000017096      none
 OpenBabel11202420153D

 25 25  0  0  0  0  0  0  0  0999 V2000
   33.4736   37.4739   55.9439 C   0  0  0  0  0  0  0  0  0  0  0  0
   33.0986   37.6026   57.3979 C   0  0  0  0  0  0  0  0  0  0  0  0
   33.1661   38.8269   58.0427 C   0  0  0  0  0  0  0  0  0  0  0  0
   32.8092   38.9088   59.3755 C   0  0  0  0  0  0  0  0  0  0  0  0
   32.4177   37.8386   60.0394 N   0  0  0  0  0  0  0  0  0  0  0  0
   32.3444   36.6541   59.4663 C   0  0  0  0  0  0  0  0  0  0  0  0
   31.8914   35.4629   60.2705 C   0  0  0  0  0  0  0  0  0  0  0  0
   31.5963   35.8835   61.6424 N   0  0  0  0  0  0  0  0  0  0  0  0
   32.4891   35.8633   62.5028 N   0  0  0  0  0  0  0  0  0  0  0  0
   32.2178   36.2502   63.7649 C   0  0  0  0  0  0  0  0  0  0  0  0
   32.8855   37.2861   64.3105 N   0  0  0  0  0  0  0  0  0  0  0  0
   31.0248   35.4260   64.6751 S   0  0  0  0  0  0  0  0  0  0  0  0
   32.6812   36.4926   58.1280 C   0  0  0  0  0  0  0  0  0  0  0  0
   32.6018   35.2355   57.5238 N   0  0  0  0  0  0  0  0  0  0  0  0
   32.5902   37.6328   55.3254 H   0  0  0  0  0  0  0  0  0  0  0  0
   33.8723   36.4766   55.7585 H   0  0  0  0  0  0  0  0  0  0  0  0
   34.2294   38.2193   55.6963 H   0  0  0  0  0  0  0  0  0  0  0  0
   33.4898   39.7083   57.5088 H   0  0  0  0  0  0  0  0  0  0  0  0
   32.8557   39.8617   59.8817 H   0  0  0  0  0  0  0  0  0  0  0  0
   30.9938   35.0400   59.8192 H   0  0  0  0  0  0  0  0  0  0  0  0
   32.6806   34.7113   60.2826 H   0  0  0  0  0  0  0  0  0  0  0  0
   33.5614   37.7531   63.7949 H   0  0  0  0  0  0  0  0  0  0  0  0
   32.6902   37.5646   65.2189 H   0  0  0  0  0  0  0  0  0  0  0  0
   32.8383   35.1310   56.5889 H   0  0  0  0  0  0  0  0  0  0  0  0
   32.3102   34.4671   58.0391 H   0  0  0  0  0  0  0  0  0  0  0  0
  1  2  1  0  0  0  0
  1 15  1  0  0  0  0
  1 16  1  0  0  0  0
  1 17  1  0  0  0  0
  2 13  2  0  0  0  0
  2  3  1  0  0  0  0
  3  4  2  0  0  0  0
  3 18  1  0  0  0  0
  4  5  1  0  0  0  0
  4 19  1  0  0  0  0
  5  6  2  0  0  0  0
  6  7  1  0  0  0  0
  6 13  1  0  0  0  0
  7  8  1  0  0  0  0
  7 20  1  0  0  0  0
  7 21  1  0  0  0  0
  8  9  2  0  0  0  0
  9 10  1  0  0  0  0
 10 11  1  0  0  0  0
 10 12  2  0  0  0  0
 11 22  1  0  0  0  0
 11 23  1  0  0  0  0
 13 14  1  0  0  0  0
 14 24  1  0  0  0  0
 14 25  1  0  0  0  0
M  END
$$$$
