ZINC000000051200      none
 OpenBabel11202420153D

 40 41  0  0  0  0  0  0  0  0999 V2000
   34.8576   38.5691   53.2195 C   0  0  0  0  0  0  0  0  0  0  0  0
   34.5587   39.4301   54.3202 O   0  0  0  0  0  0  0  0  0  0  0  0
   34.1149   38.8405   55.4623 C   0  0  0  0  0  0  0  0  0  0  0  0
   33.8068   39.6173   56.5692 C   0  0  0  0  0  0  0  0  0  0  0  0
   33.3565   39.0184   57.7296 C   0  0  0  0  0  0  0  0  0  0  0  0
   33.2123   37.6402   57.7878 C   0  0  0  0  0  0  0  0  0  0  0  0
   32.7693   37.0506   58.9303 O   0  0  0  0  0  0  0  0  0  0  0  0
   32.4712   37.9114   60.0313 C   0  0  0  0  0  0  0  0  0  0  0  0
   31.9980   37.0864   61.2001 C   0  0  0  0  0  0  0  0  0  0  0  0
   32.4030   35.9524   61.3456 O   0  0  0  0  0  0  0  0  0  0  0  0
   31.1246   37.6086   62.0839 N   0  0  0  0  0  0  0  0  0  0  0  0
   30.6852   36.8427   63.1693 C   0  0  0  0  0  0  0  0  0  0  0  0
   29.3339   36.5596   63.3195 C   0  0  0  0  0  0  0  0  0  0  0  0
   28.3384   37.0772   62.3134 C   0  0  0  0  0  0  0  0  0  0  0  0
   28.9029   35.8070   64.3944 C   0  0  0  0  0  0  0  0  0  0  0  0
   29.8162   35.3269   65.3148 C   0  0  0  0  0  0  0  0  0  0  0  0
   31.1630   35.6034   65.1658 C   0  0  0  0  0  0  0  0  0  0  0  0
   31.5999   36.3595   64.0958 C   0  0  0  0  0  0  0  0  0  0  0  0
   33.0679   36.6594   63.9336 C   0  0  0  0  0  0  0  0  0  0  0  0
   33.5255   36.8628   56.6826 C   0  0  0  0  0  0  0  0  0  0  0  0
   33.9708   37.4623   55.5206 C   0  0  0  0  0  0  0  0  0  0  0  0
   35.6392   37.8667   53.5093 H   0  0  0  0  0  0  0  0  0  0  0  0
   33.9611   38.0180   52.9354 H   0  0  0  0  0  0  0  0  0  0  0  0
   35.2004   39.1658   52.3741 H   0  0  0  0  0  0  0  0  0  0  0  0
   33.9194   40.6905   56.5240 H   0  0  0  0  0  0  0  0  0  0  0  0
   33.1168   39.6233   58.5916 H   0  0  0  0  0  0  0  0  0  0  0  0
   31.6895   38.6137   59.7420 H   0  0  0  0  0  0  0  0  0  0  0  0
   33.3680   38.4624   60.3148 H   0  0  0  0  0  0  0  0  0  0  0  0
   30.8007   38.5155   61.9676 H   0  0  0  0  0  0  0  0  0  0  0  0
   28.0738   38.1054   62.5598 H   0  0  0  0  0  0  0  0  0  0  0  0
   28.7786   37.0442   61.3167 H   0  0  0  0  0  0  0  0  0  0  0  0
   27.4429   36.4562   62.3358 H   0  0  0  0  0  0  0  0  0  0  0  0
   27.8517   35.5893   64.5134 H   0  0  0  0  0  0  0  0  0  0  0  0
   29.4772   34.7352   66.1522 H   0  0  0  0  0  0  0  0  0  0  0  0
   31.8739   35.2273   65.8866 H   0  0  0  0  0  0  0  0  0  0  0  0
   33.5349   35.8763   63.3361 H   0  0  0  0  0  0  0  0  0  0  0  0
   33.1892   37.6198   63.4325 H   0  0  0  0  0  0  0  0  0  0  0  0
   33.5411   36.6990   64.9147 H   0  0  0  0  0  0  0  0  0  0  0  0
   33.4174   35.7893   56.7295 H   0  0  0  0  0  0  0  0  0  0  0  0
   34.2111   36.8573   54.6587 H   0  0  0  0  0  0  0  0  0  0  0  0
  1  2  1  0  0  0  0
  1 22  1  0  0  0  0
  1 23  1  0  0  0  0
  1 24  1  0  0  0  0
  2  3  1  0  0  0  0
  3 21  2  0  0  0  0
  3  4  1  0  0  0  0
  4  5  2  0  0  0  0
  4 25  1  0  0  0  0
  5  6  1  0  0  0  0
  5 26  1  0  0  0  0
  6  7  1  0  0  0  0
  6 20  2  0  0  0  0
  7  8  1  0  0  0  0
  8  9  1  0  0  0  0
  8 27  1  0  0  0  0
  8 28  1  0  0  0  0
  9 10  2  0  0  0  0
  9 11  1  0  0  0  0
 11 12  1  0  0  0  0
 11 29  1  0  0  0  0
 12 18  2  0  0  0  0
 12 13  1  0  0  0  0
 13 14  1  0  0  0  0
 13 15  2  0  0  0  0
 14 30  1  0  0  0  0
 14 31  1  0  0  0  0
 14 32  1  0  0  0  0
 15 16  1  0  0  0  0
 15 33  1  0  0  0  0
 16 17  2  0  0  0  0
 16 34  1  0  0  0  0
 17 18  1  0  0  0  0
 17 35  1  0  0  0  0
 18 19  1  0  0  0  0
 19 36  1  0  0  0  0
 19 37  1  0  0  0  0
 19 38  1  0  0  0  0
 20 21  1  0  0  0  0
 20 39  1  0  0  0  0
 21 40  1  0  0  0  0
M  END
$$$$
