ZINC000000003975      none
 OpenBabel11202420153D

 38 38  0  0  0  0  0  0  0  0999 V2000
   34.5546   32.3251   53.4291 C   0  0  0  0  0  0  0  0  0  0  0  0
   34.6913   33.1547   54.6287 N   0  0  0  0  0  0  0  0  0  0  0  0
   33.6070   33.4438   55.3753 C   0  0  0  0  0  0  0  0  0  0  0  0
   32.5161   33.0163   55.0532 O   0  0  0  0  0  0  0  0  0  0  0  0
   33.7326   34.2065   56.4777 O   0  0  0  0  0  0  0  0  0  0  0  0
   32.5225   34.4773   57.2332 C   0  0  0  0  0  0  0  0  0  0  0  0
   32.6419   35.8191   57.9089 C   0  0  0  0  0  0  0  0  0  0  0  0
   32.3120   36.0903   59.1828 N   0  0  0  0  0  0  0  0  0  0  0  0
   32.5461   37.3577   59.4313 C   0  0  0  0  0  0  0  0  0  0  0  0
   32.2688   38.1752   60.9674 S   0  0  0  0  0  0  0  0  0  0  0  0
   31.6250   36.7954   61.9460 C   0  0  0  0  0  0  0  0  0  0  0  0
   33.0446   37.9319   58.3024 N   0  0  0  0  0  0  0  0  0  0  0  0
   33.4468   39.3313   58.1409 C   0  0  0  0  0  0  0  0  0  0  0  0
   33.0966   36.9486   57.3401 C   0  0  0  0  0  0  0  0  0  0  0  0
   33.5780   37.1072   55.9209 C   0  0  0  0  0  0  0  0  0  0  0  0
   32.6543   36.4423   55.0193 O   0  0  0  0  0  0  0  0  0  0  0  0
   32.9417   36.4905   53.7049 C   0  0  0  0  0  0  0  0  0  0  0  0
   33.9371   37.0723   53.3215 O   0  0  0  0  0  0  0  0  0  0  0  0
   32.1253   35.8933   52.8141 N   0  0  0  0  0  0  0  0  0  0  0  0
   32.4379   35.9457   51.3839 C   0  0  0  0  0  0  0  0  0  0  0  0
   35.5308   32.2008   52.9602 H   0  0  0  0  0  0  0  0  0  0  0  0
   34.1577   31.3485   53.7061 H   0  0  0  0  0  0  0  0  0  0  0  0
   33.8739   32.8088   52.7285 H   0  0  0  0  0  0  0  0  0  0  0  0
   35.5621   33.4960   54.8858 H   0  0  0  0  0  0  0  0  0  0  0  0
   32.3834   33.7022   57.9867 H   0  0  0  0  0  0  0  0  0  0  0  0
   31.6668   34.4854   56.5580 H   0  0  0  0  0  0  0  0  0  0  0  0
   32.3729   36.0041   61.9941 H   0  0  0  0  0  0  0  0  0  0  0  0
   31.3960   37.1408   62.9542 H   0  0  0  0  0  0  0  0  0  0  0  0
   30.7183   36.4107   61.4789 H   0  0  0  0  0  0  0  0  0  0  0  0
   32.5923   39.9184   57.8042 H   0  0  0  0  0  0  0  0  0  0  0  0
   33.8010   39.7200   59.0957 H   0  0  0  0  0  0  0  0  0  0  0  0
   34.2462   39.3968   57.4029 H   0  0  0  0  0  0  0  0  0  0  0  0
   33.6300   38.1670   55.6712 H   0  0  0  0  0  0  0  0  0  0  0  0
   34.5676   36.6614   55.8208 H   0  0  0  0  0  0  0  0  0  0  0  0
   31.3305   35.4288   53.1201 H   0  0  0  0  0  0  0  0  0  0  0  0
   32.4694   36.9850   51.0568 H   0  0  0  0  0  0  0  0  0  0  0  0
   33.4071   35.4796   51.2065 H   0  0  0  0  0  0  0  0  0  0  0  0
   31.6700   35.4118   50.8242 H   0  0  0  0  0  0  0  0  0  0  0  0
  1  2  1  0  0  0  0
  1 21  1  0  0  0  0
  1 22  1  0  0  0  0
  1 23  1  0  0  0  0
  2  3  1  0  0  0  0
  2 24  1  0  0  0  0
  3  4  2  0  0  0  0
  3  5  1  0  0  0  0
  5  6  1  0  0  0  0
  6  7  1  0  0  0  0
  6 25  1  0  0  0  0
  6 26  1  0  0  0  0
  7 14  2  0  0  0  0
  7  8  1  0  0  0  0
  8  9  2  0  0  0  0
  9 10  1  0  0  0  0
  9 12  1  0  0  0  0
 10 11  1  0  0  0  0
 11 27  1  0  0  0  0
 11 28  1  0  0  0  0
 11 29  1  0  0  0  0
 12 13  1  0  0  0  0
 12 14  1  0  0  0  0
 13 30  1  0  0  0  0
 13 31  1  0  0  0  0
 13 32  1  0  0  0  0
 14 15  1  0  0  0  0
 15 16  1  0  0  0  0
 15 33  1  0  0  0  0
 15 34  1  0  0  0  0
 16 17  1  0  0  0  0
 17 18  2  0  0  0  0
 17 19  1  0  0  0  0
 19 20  1  0  0  0  0
 19 35  1  0  0  0  0
 20 36  1  0  0  0  0
 20 37  1  0  0  0  0
 20 38  1  0  0  0  0
M  END
$$$$
