ZINC000000035342      none
 OpenBabel11202420153D

 30 32  0  0  0  0  0  0  0  0999 V2000
   29.7647   37.2043   60.6716 O   0  0  0  0  0  0  0  0  0  0  0  0
   30.9238   36.9964   60.9749 C   0  0  0  0  0  0  0  0  0  0  0  0
   31.9983   36.1806   59.8414 S   0  0  0  0  0  0  0  0  0  0  0  0
   32.6366   37.5722   58.9691 C   0  0  0  0  0  0  0  0  0  0  0  0
   32.7621   38.7927   59.6005 C   0  0  0  0  0  0  0  0  0  0  0  0
   33.2654   39.8949   58.9182 C   0  0  0  0  0  0  0  0  0  0  0  0
   33.6470   39.8028   57.6140 C   0  0  0  0  0  0  0  0  0  0  0  0
   33.5308   38.5802   56.9311 C   0  0  0  0  0  0  0  0  0  0  0  0
   33.9057   38.4674   55.6523 N   0  0  0  0  0  0  0  0  0  0  0  0
   33.8047   37.3286   55.0103 C   0  0  0  0  0  0  0  0  0  0  0  0
   33.3103   36.1819   55.6264 C   0  0  0  0  0  0  0  0  0  0  0  0
   32.9153   36.2271   56.9343 C   0  0  0  0  0  0  0  0  0  0  0  0
   33.0250   37.4494   57.6187 C   0  0  0  0  0  0  0  0  0  0  0  0
   31.4313   37.4281   62.2940 C   0  0  0  0  0  0  0  0  0  0  0  0
   32.4544   36.7134   62.9195 C   0  0  0  0  0  0  0  0  0  0  0  0
   32.9265   37.1243   64.1490 C   0  0  0  0  0  0  0  0  0  0  0  0
   32.3817   38.2363   64.7663 C   0  0  0  0  0  0  0  0  0  0  0  0
   31.3638   38.9460   64.1541 C   0  0  0  0  0  0  0  0  0  0  0  0
   30.8858   38.5488   62.9225 C   0  0  0  0  0  0  0  0  0  0  0  0
   32.4660   38.8931   60.6343 H   0  0  0  0  0  0  0  0  0  0  0  0
   33.3552   40.8408   59.4315 H   0  0  0  0  0  0  0  0  0  0  0  0
   34.0351   40.6713   57.1027 H   0  0  0  0  0  0  0  0  0  0  0  0
   34.1136   37.2785   53.9766 H   0  0  0  0  0  0  0  0  0  0  0  0
   33.2386   35.2581   55.0716 H   0  0  0  0  0  0  0  0  0  0  0  0
   32.5290   35.3476   57.4280 H   0  0  0  0  0  0  0  0  0  0  0  0
   32.8777   35.8429   62.4406 H   0  0  0  0  0  0  0  0  0  0  0  0
   33.7207   36.5749   64.6323 H   0  0  0  0  0  0  0  0  0  0  0  0
   32.7522   38.5514   65.7305 H   0  0  0  0  0  0  0  0  0  0  0  0
   30.9424   39.8127   64.6417 H   0  0  0  0  0  0  0  0  0  0  0  0
   30.0910   39.1035   62.4460 H   0  0  0  0  0  0  0  0  0  0  0  0
  1  2  2  0  0  0  0
  2  3  1  0  0  0  0
  2 14  1  0  0  0  0
  3  4  1  0  0  0  0
  4 13  2  0  0  0  0
  4  5  1  0  0  0  0
  5  6  2  0  0  0  0
  5 20  1  0  0  0  0
  6  7  1  0  0  0  0
  6 21  1  0  0  0  0
  7  8  2  0  0  0  0
  7 22  1  0  0  0  0
  8 13  1  0  0  0  0
  8  9  1  0  0  0  0
  9 10  2  0  0  0  0
 10 11  1  0  0  0  0
 10 23  1  0  0  0  0
 11 12  2  0  0  0  0
 11 24  1  0  0  0  0
 12 13  1  0  0  0  0
 12 25  1  0  0  0  0
 14 19  2  0  0  0  0
 14 15  1  0  0  0  0
 15 16  2  0  0  0  0
 15 26  1  0  0  0  0
 16 17  1  0  0  0  0
 16 27  1  0  0  0  0
 17 18  2  0  0  0  0
 17 28  1  0  0  0  0
 18 19  1  0  0  0  0
 18 29  1  0  0  0  0
 19 30  1  0  0  0  0
M  END
$$$$
