ZINC000000000187      none
 OpenBabel11202420153D

 30 31  0  0  0  0  0  0  0  0999 V2000
   28.3869   33.6565   65.1207 C   0  0  0  0  0  0  0  0  0  0  0  0
   29.7456   34.0982   65.1521 O   0  0  0  0  0  0  0  0  0  0  0  0
   30.1224   34.9992   64.2102 C   0  0  0  0  0  0  0  0  0  0  0  0
   31.4285   35.4723   64.1906 C   0  0  0  0  0  0  0  0  0  0  0  0
   31.8224   36.3868   63.2316 C   0  0  0  0  0  0  0  0  0  0  0  0
   33.0996   36.8435   63.2111 O   0  0  0  0  0  0  0  0  0  0  0  0
   30.8944   36.8459   62.2813 C   0  0  0  0  0  0  0  0  0  0  0  0
   31.3021   37.8220   61.2623 C   0  0  0  0  0  0  0  0  0  0  0  0
   31.1994   39.0136   61.4858 O   0  0  0  0  0  0  0  0  0  0  0  0
   31.8373   37.3565   59.9648 C   0  0  0  0  0  0  0  0  0  0  0  0
   31.9617   35.9899   59.7073 C   0  0  0  0  0  0  0  0  0  0  0  0
   32.4564   35.5625   58.4926 C   0  0  0  0  0  0  0  0  0  0  0  0
   32.8397   36.4848   57.5349 C   0  0  0  0  0  0  0  0  0  0  0  0
   32.7243   37.8406   57.7859 C   0  0  0  0  0  0  0  0  0  0  0  0
   32.2258   38.2816   58.9941 C   0  0  0  0  0  0  0  0  0  0  0  0
   29.5736   36.3659   62.3117 C   0  0  0  0  0  0  0  0  0  0  0  0
   28.6698   36.8027   61.3994 O   0  0  0  0  0  0  0  0  0  0  0  0
   29.1985   35.4477   63.2746 C   0  0  0  0  0  0  0  0  0  0  0  0
   28.2191   32.9401   65.9249 H   0  0  0  0  0  0  0  0  0  0  0  0
   27.7238   34.5116   65.2515 H   0  0  0  0  0  0  0  0  0  0  0  0
   28.1814   33.1809   64.1616 H   0  0  0  0  0  0  0  0  0  0  0  0
   32.1392   35.1218   64.9245 H   0  0  0  0  0  0  0  0  0  0  0  0
   33.2788   37.4790   62.5045 H   0  0  0  0  0  0  0  0  0  0  0  0
   31.6674   35.2692   60.4558 H   0  0  0  0  0  0  0  0  0  0  0  0
   32.5490   34.5056   58.2904 H   0  0  0  0  0  0  0  0  0  0  0  0
   33.2308   36.1447   56.5874 H   0  0  0  0  0  0  0  0  0  0  0  0
   33.0249   38.5552   57.0339 H   0  0  0  0  0  0  0  0  0  0  0  0
   32.1367   39.3402   59.1889 H   0  0  0  0  0  0  0  0  0  0  0  0
   29.0262   37.4430   60.7684 H   0  0  0  0  0  0  0  0  0  0  0  0
   28.1840   35.0780   63.2999 H   0  0  0  0  0  0  0  0  0  0  0  0
  1  2  1  0  0  0  0
  1 19  1  0  0  0  0
  1 20  1  0  0  0  0
  1 21  1  0  0  0  0
  2  3  1  0  0  0  0
  3 18  2  0  0  0  0
  3  4  1  0  0  0  0
  4  5  2  0  0  0  0
  4 22  1  0  0  0  0
  5  6  1  0  0  0  0
  5  7  1  0  0  0  0
  6 23  1  0  0  0  0
  7  8  1  0  0  0  0
  7 16  2  0  0  0  0
  8  9  2  0  0  0  0
  8 10  1  0  0  0  0
 10 15  2  0  0  0  0
 10 11  1  0  0  0  0
 11 12  2  0  0  0  0
 11 24  1  0  0  0  0
 12 13  1  0  0  0  0
 12 25  1  0  0  0  0
 13 14  2  0  0  0  0
 13 26  1  0  0  0  0
 14 15  1  0  0  0  0
 14 27  1  0  0  0  0
 15 28  1  0  0  0  0
 16 17  1  0  0  0  0
 16 18  1  0  0  0  0
 17 29  1  0  0  0  0
 18 30  1  0  0  0  0
M  END
$$$$
