ZINC000000029809      none
 OpenBabel11202420163D

 32 32  0  0  0  0  0  0  0  0999 V2000
   31.6165   37.8377   62.5296 C   0  0  0  0  0  0  0  0  0  0  0  0
   32.0568   37.6485   61.1009 C   0  0  0  0  0  0  0  0  0  0  0  0
   32.1023   36.5347   60.6226 O   0  0  0  0  0  0  0  0  0  0  0  0
   32.4003   38.7167   60.3544 N   0  0  0  0  0  0  0  0  0  0  0  0
   32.8094   38.5411   59.0280 C   0  0  0  0  0  0  0  0  0  0  0  0
   33.1588   39.6425   58.2563 C   0  0  0  0  0  0  0  0  0  0  0  0
   33.5620   39.4699   56.9463 C   0  0  0  0  0  0  0  0  0  0  0  0
   33.6202   38.2023   56.3995 C   0  0  0  0  0  0  0  0  0  0  0  0
   33.2731   37.0971   57.1660 C   0  0  0  0  0  0  0  0  0  0  0  0
   33.3328   35.8137   56.6117 N   0  0  0  0  0  0  0  0  0  0  0  0
   33.1246   35.6394   55.2915 C   0  0  0  0  0  0  0  0  0  0  0  0
   32.8805   36.5945   54.5849 O   0  0  0  0  0  0  0  0  0  0  0  0
   33.1951   34.2581   54.6935 C   0  0  0  0  0  0  0  0  0  0  0  0
   32.9227   34.3387   53.1901 C   0  0  0  0  0  0  0  0  0  0  0  0
   34.5883   33.6711   54.9286 C   0  0  0  0  0  0  0  0  0  0  0  0
   32.8617   37.2676   58.4802 C   0  0  0  0  0  0  0  0  0  0  0  0
   30.5361   37.9780   62.5612 H   0  0  0  0  0  0  0  0  0  0  0  0
   31.8857   36.9568   63.1125 H   0  0  0  0  0  0  0  0  0  0  0  0
   32.1092   38.7151   62.9485 H   0  0  0  0  0  0  0  0  0  0  0  0
   32.3640   39.6074   60.7369 H   0  0  0  0  0  0  0  0  0  0  0  0
   33.1147   40.6345   58.6809 H   0  0  0  0  0  0  0  0  0  0  0  0
   33.8327   40.3276   56.3484 H   0  0  0  0  0  0  0  0  0  0  0  0
   33.9361   38.0707   55.3752 H   0  0  0  0  0  0  0  0  0  0  0  0
   33.5280   35.0499   57.1769 H   0  0  0  0  0  0  0  0  0  0  0  0
   32.4477   33.6197   55.1645 H   0  0  0  0  0  0  0  0  0  0  0  0
   33.6702   34.9771   52.7191 H   0  0  0  0  0  0  0  0  0  0  0  0
   32.9738   33.3394   52.7574 H   0  0  0  0  0  0  0  0  0  0  0  0
   31.9302   34.7569   53.0226 H   0  0  0  0  0  0  0  0  0  0  0  0
   35.3358   34.3094   54.4576 H   0  0  0  0  0  0  0  0  0  0  0  0
   34.7824   33.6136   55.9997 H   0  0  0  0  0  0  0  0  0  0  0  0
   34.6393   32.6718   54.4960 H   0  0  0  0  0  0  0  0  0  0  0  0
   32.5872   36.4102   59.0769 H   0  0  0  0  0  0  0  0  0  0  0  0
  1  2  1  0  0  0  0
  1 17  1  0  0  0  0
  1 18  1  0  0  0  0
  1 19  1  0  0  0  0
  2  3  2  0  0  0  0
  2  4  1  0  0  0  0
  4  5  1  0  0  0  0
  4 20  1  0  0  0  0
  5 16  2  0  0  0  0
  5  6  1  0  0  0  0
  6  7  2  0  0  0  0
  6 21  1  0  0  0  0
  7  8  1  0  0  0  0
  7 22  1  0  0  0  0
  8  9  2  0  0  0  0
  8 23  1  0  0  0  0
  9 10  1  0  0  0  0
  9 16  1  0  0  0  0
 10 11  1  0  0  0  0
 10 24  1  0  0  0  0
 11 12  2  0  0  0  0
 11 13  1  0  0  0  0
 13 14  1  0  0  0  0
 13 15  1  0  0  0  0
 13 25  1  0  0  0  0
 14 26  1  0  0  0  0
 14 27  1  0  0  0  0
 14 28  1  0  0  0  0
 15 29  1  0  0  0  0
 15 30  1  0  0  0  0
 15 31  1  0  0  0  0
 16 32  1  0  0  0  0
M  END
$$$$
