ZINC000000051625      none
 OpenBabel11202420153D

 28 30  0  0  0  0  0  0  0  0999 V2000
   32.3277   36.3420   52.2772 C   0  0  0  0  0  0  0  0  0  0  0  0
   33.7942   35.9103   52.2145 C   0  0  0  0  0  0  0  0  0  0  0  0
   34.8580   37.3218   52.6231 S   0  0  0  0  0  0  0  0  0  0  0  0
   34.3458   37.7450   54.2550 C   0  0  0  0  0  0  0  0  0  0  0  0
   34.3699   38.9420   54.7938 N   0  0  0  0  0  0  0  0  0  0  0  0
   33.9255   38.8905   56.0002 N   0  0  0  0  0  0  0  0  0  0  0  0
   33.5920   37.6589   56.3018 C   0  0  0  0  0  0  0  0  0  0  0  0
   33.0901   36.8072   57.2630 N   0  0  0  0  0  0  0  0  0  0  0  0
   32.6900   37.1681   58.5562 N   0  0  0  0  0  0  0  0  0  0  0  0
   31.7448   36.5024   59.1547 C   0  0  0  0  0  0  0  0  0  0  0  0
   31.3264   36.8798   60.5074 C   0  0  0  0  0  0  0  0  0  0  0  0
   31.8375   37.9066   61.2478 C   0  0  0  0  0  0  0  0  0  0  0  0
   31.1474   37.9039   62.4737 C   0  0  0  0  0  0  0  0  0  0  0  0
   30.2591   36.8901   62.4267 C   0  0  0  0  0  0  0  0  0  0  0  0
   30.3654   36.2775   61.2364 O   0  0  0  0  0  0  0  0  0  0  0  0
   33.0520   35.5443   56.7296 C   0  0  0  0  0  0  0  0  0  0  0  0
   33.4967   35.5770   55.5129 N   0  0  0  0  0  0  0  0  0  0  0  0
   33.8503   36.8896   55.1965 N   0  0  0  0  0  0  0  0  0  0  0  0
   31.6885   35.4939   52.0317 H   0  0  0  0  0  0  0  0  0  0  0  0
   32.0950   36.6935   53.2825 H   0  0  0  0  0  0  0  0  0  0  0  0
   32.1548   37.1462   51.5620 H   0  0  0  0  0  0  0  0  0  0  0  0
   34.0269   35.5589   51.2094 H   0  0  0  0  0  0  0  0  0  0  0  0
   33.9671   35.1061   52.9297 H   0  0  0  0  0  0  0  0  0  0  0  0
   31.2690   35.6720   58.6542 H   0  0  0  0  0  0  0  0  0  0  0  0
   32.6203   38.5886   60.9502 H   0  0  0  0  0  0  0  0  0  0  0  0
   31.3002   38.5855   63.2976 H   0  0  0  0  0  0  0  0  0  0  0  0
   29.5717   36.6189   63.2144 H   0  0  0  0  0  0  0  0  0  0  0  0
   32.7048   34.6602   57.2435 H   0  0  0  0  0  0  0  0  0  0  0  0
  1  2  1  0  0  0  0
  1 19  1  0  0  0  0
  1 20  1  0  0  0  0
  1 21  1  0  0  0  0
  2  3  1  0  0  0  0
  2 22  1  0  0  0  0
  2 23  1  0  0  0  0
  3  4  1  0  0  0  0
  4 18  1  0  0  0  0
  4  5  2  0  0  0  0
  5  6  1  0  0  0  0
  6  7  2  0  0  0  0
  7 18  1  0  0  0  0
  7  8  1  0  0  0  0
  8  9  1  0  0  0  0
  8 16  1  0  0  0  0
  9 10  2  0  0  0  0
 10 11  1  0  0  0  0
 10 24  1  0  0  0  0
 11 15  1  0  0  0  0
 11 12  2  0  0  0  0
 12 13  1  0  0  0  0
 12 25  1  0  0  0  0
 13 14  2  0  0  0  0
 13 26  1  0  0  0  0
 14 15  1  0  0  0  0
 14 27  1  0  0  0  0
 16 17  2  0  0  0  0
 16 28  1  0  0  0  0
 17 18  1  0  0  0  0
M  END
$$$$
