ZINC000000033374      none
 OpenBabel11202420153D

 46 47  0  0  0  0  0  0  0  0999 V2000
   35.2253   38.9625   52.3222 C   0  0  0  0  0  0  0  0  0  0  0  0
   34.9816   39.6593   53.5457 O   0  0  0  0  0  0  0  0  0  0  0  0
   34.5118   38.9283   54.5880 C   0  0  0  0  0  0  0  0  0  0  0  0
   34.2542   39.5448   55.8069 C   0  0  0  0  0  0  0  0  0  0  0  0
   33.7778   38.8065   56.8671 C   0  0  0  0  0  0  0  0  0  0  0  0
   33.5583   37.4345   56.7180 C   0  0  0  0  0  0  0  0  0  0  0  0
   33.0536   36.6383   57.8533 C   0  0  0  0  0  0  0  0  0  0  0  0
   33.3074   35.4511   57.9238 O   0  0  0  0  0  0  0  0  0  0  0  0
   32.3115   37.2268   58.8121 N   0  0  0  0  0  0  0  0  0  0  0  0
   31.8331   36.4720   59.8883 C   0  0  0  0  0  0  0  0  0  0  0  0
   31.5467   35.1225   59.7181 C   0  0  0  0  0  0  0  0  0  0  0  0
   31.0794   34.3712   60.7798 C   0  0  0  0  0  0  0  0  0  0  0  0
   30.8831   34.9585   62.0133 C   0  0  0  0  0  0  0  0  0  0  0  0
   31.1621   36.3142   62.1932 C   0  0  0  0  0  0  0  0  0  0  0  0
   30.9529   36.9456   63.5137 C   0  0  0  0  0  0  0  0  0  0  0  0
   30.1242   36.4931   64.2794 O   0  0  0  0  0  0  0  0  0  0  0  0
   31.6811   38.0227   63.8687 N   0  0  0  0  0  0  0  0  0  0  0  0
   31.4738   38.6483   65.1771 C   0  0  0  0  0  0  0  0  0  0  0  0
   31.7603   37.6286   66.2811 C   0  0  0  0  0  0  0  0  0  0  0  0
   33.2089   37.1488   66.1688 C   0  0  0  0  0  0  0  0  0  0  0  0
   31.5440   38.2822   67.6474 C   0  0  0  0  0  0  0  0  0  0  0  0
   31.6392   37.0711   61.1232 C   0  0  0  0  0  0  0  0  0  0  0  0
   33.8140   36.8192   55.4895 C   0  0  0  0  0  0  0  0  0  0  0  0
   34.2898   37.5648   54.4341 C   0  0  0  0  0  0  0  0  0  0  0  0
   35.5973   39.6620   51.5736 H   0  0  0  0  0  0  0  0  0  0  0  0
   35.9670   38.1817   52.4902 H   0  0  0  0  0  0  0  0  0  0  0  0
   34.2974   38.5123   51.9694 H   0  0  0  0  0  0  0  0  0  0  0  0
   34.4283   40.6044   55.9226 H   0  0  0  0  0  0  0  0  0  0  0  0
   33.5783   39.2863   57.8138 H   0  0  0  0  0  0  0  0  0  0  0  0
   32.1091   38.1737   58.7560 H   0  0  0  0  0  0  0  0  0  0  0  0
   31.6940   34.6586   58.7540 H   0  0  0  0  0  0  0  0  0  0  0  0
   30.8630   33.3220   60.6426 H   0  0  0  0  0  0  0  0  0  0  0  0
   30.5131   34.3690   62.8393 H   0  0  0  0  0  0  0  0  0  0  0  0
   32.3424   38.3837   63.2577 H   0  0  0  0  0  0  0  0  0  0  0  0
   32.1474   39.4986   65.2839 H   0  0  0  0  0  0  0  0  0  0  0  0
   30.4419   38.9902   65.2570 H   0  0  0  0  0  0  0  0  0  0  0  0
   31.0867   36.7785   66.1742 H   0  0  0  0  0  0  0  0  0  0  0  0
   33.8825   37.9990   66.2757 H   0  0  0  0  0  0  0  0  0  0  0  0
   33.4129   36.4224   66.9554 H   0  0  0  0  0  0  0  0  0  0  0  0
   33.3629   36.6833   65.1954 H   0  0  0  0  0  0  0  0  0  0  0  0
   30.5121   38.6240   67.7275 H   0  0  0  0  0  0  0  0  0  0  0  0
   31.7481   37.5558   68.4341 H   0  0  0  0  0  0  0  0  0  0  0  0
   32.2177   39.1323   67.7544 H   0  0  0  0  0  0  0  0  0  0  0  0
   31.8572   38.1205   61.2565 H   0  0  0  0  0  0  0  0  0  0  0  0
   33.6421   35.7598   55.3692 H   0  0  0  0  0  0  0  0  0  0  0  0
   34.4912   37.0893   53.4855 H   0  0  0  0  0  0  0  0  0  0  0  0
  1  2  1  0  0  0  0
  1 25  1  0  0  0  0
  1 26  1  0  0  0  0
  1 27  1  0  0  0  0
  2  3  1  0  0  0  0
  3 24  2  0  0  0  0
  3  4  1  0  0  0  0
  4  5  2  0  0  0  0
  4 28  1  0  0  0  0
  5  6  1  0  0  0  0
  5 29  1  0  0  0  0
  6  7  1  0  0  0  0
  6 23  2  0  0  0  0
  7  8  2  0  0  0  0
  7  9  1  0  0  0  0
  9 10  1  0  0  0  0
  9 30  1  0  0  0  0
 10 22  2  0  0  0  0
 10 11  1  0  0  0  0
 11 12  2  0  0  0  0
 11 31  1  0  0  0  0
 12 13  1  0  0  0  0
 12 32  1  0  0  0  0
 13 14  2  0  0  0  0
 13 33  1  0  0  0  0
 14 15  1  0  0  0  0
 14 22  1  0  0  0  0
 15 16  2  0  0  0  0
 15 17  1  0  0  0  0
 17 18  1  0  0  0  0
 17 34  1  0  0  0  0
 18 19  1  0  0  0  0
 18 35  1  0  0  0  0
 18 36  1  0  0  0  0
 19 20  1  0  0  0  0
 19 21  1  0  0  0  0
 19 37  1  0  0  0  0
 20 38  1  0  0  0  0
 20 39  1  0  0  0  0
 20 40  1  0  0  0  0
 21 41  1  0  0  0  0
 21 42  1  0  0  0  0
 21 43  1  0  0  0  0
 22 44  1  0  0  0  0
 23 24  1  0  0  0  0
 23 45  1  0  0  0  0
 24 46  1  0  0  0  0
M  END
$$$$
