ZINC000000036785      none
 OpenBabel11202420153D

 39 41  0  0  1  0  0  0  0  0999 V2000
   33.2079   33.7625   58.7107 C   0  0  0  0  0  0  0  0  0  0  0  0
   31.7549   33.7394   59.7962 S   0  0  0  0  0  0  0  0  0  0  0  0
   31.8962   32.7409   60.7973 O   0  0  0  0  0  0  0  0  0  0  0  0
   30.5608   33.8484   59.0335 O   0  0  0  0  0  0  0  0  0  0  0  0
   31.8442   35.2595   60.6828 C   0  0  0  0  0  0  0  0  0  0  0  0
   31.8337   36.4869   60.1581 C   0  0  0  0  0  0  0  0  0  0  0  0
   31.7477   36.7792   58.7926 N   0  0  0  0  0  0  0  0  0  0  0  0
   31.9259   37.4852   61.2349 C   0  0  0  0  0  0  0  0  0  0  0  0
   31.9383   38.6899   61.0703 O   0  0  0  0  0  0  0  0  0  0  0  0
   31.9935   36.8680   62.4292 N   0  0  0  0  0  0  0  0  0  0  0  0
   32.0896   37.4905   63.6775 C   0  0  0  0  0  0  0  0  0  0  0  0
   32.7444   36.8541   64.7242 C   0  0  0  0  0  0  0  0  0  0  0  0
   32.8432   37.4747   65.9540 C   0  0  0  0  0  0  0  0  0  0  0  0
   32.2801   38.7227   66.1476 C   0  0  0  0  0  0  0  0  0  0  0  0
   31.6222   39.3566   65.1094 C   0  0  0  0  0  0  0  0  0  0  0  0
   31.5254   38.7444   63.8752 C   0  0  0  0  0  0  0  0  0  0  0  0
   31.9478   35.4213   62.1815 C   0  0  1  0  0  0  0  0  0  0  0  0
   32.8591   34.9486   62.5481 H   0  0  0  0  0  0  0  0  0  0  0  0
   30.7419   34.8172   62.8536 C   0  0  0  0  0  0  0  0  0  0  0  0
   29.6229   35.5930   63.0928 C   0  0  0  0  0  0  0  0  0  0  0  0
   28.5148   35.0374   63.7045 C   0  0  0  0  0  0  0  0  0  0  0  0
   28.5295   33.7090   64.0869 C   0  0  0  0  0  0  0  0  0  0  0  0
   29.6505   32.9349   63.8529 C   0  0  0  0  0  0  0  0  0  0  0  0
   30.7567   33.4889   63.2360 C   0  0  0  0  0  0  0  0  0  0  0  0
   34.1124   33.8281   59.3154 H   0  0  0  0  0  0  0  0  0  0  0  0
   33.2331   32.8483   58.1177 H   0  0  0  0  0  0  0  0  0  0  0  0
   33.1516   34.6250   58.0464 H   0  0  0  0  0  0  0  0  0  0  0  0
   31.6895   36.0593   58.1452 H   0  0  0  0  0  0  0  0  0  0  0  0
   31.7463   37.7019   58.4935 H   0  0  0  0  0  0  0  0  0  0  0  0
   33.1802   35.8772   64.5750 H   0  0  0  0  0  0  0  0  0  0  0  0
   33.3570   36.9827   66.7666 H   0  0  0  0  0  0  0  0  0  0  0  0
   32.3546   39.2038   67.1118 H   0  0  0  0  0  0  0  0  0  0  0  0
   31.1838   40.3313   65.2638 H   0  0  0  0  0  0  0  0  0  0  0  0
   31.0116   39.2398   63.0649 H   0  0  0  0  0  0  0  0  0  0  0  0
   29.6130   36.6318   62.7979 H   0  0  0  0  0  0  0  0  0  0  0  0
   27.6388   35.6421   63.8871 H   0  0  0  0  0  0  0  0  0  0  0  0
   27.6651   33.2760   64.5682 H   0  0  0  0  0  0  0  0  0  0  0  0
   29.6621   31.8970   64.1516 H   0  0  0  0  0  0  0  0  0  0  0  0
   31.6324   32.8841   63.0531 H   0  0  0  0  0  0  0  0  0  0  0  0
  1  2  1  0  0  0  0
  1 25  1  0  0  0  0
  1 26  1  0  0  0  0
  1 27  1  0  0  0  0
  2  3  2  0  0  0  0
  2  4  2  0  0  0  0
  2  5  1  0  0  0  0
  5 17  1  0  0  0  0
  5  6  2  0  0  0  0
  6  7  1  0  0  0  0
  6  8  1  0  0  0  0
  7 28  1  0  0  0  0
  7 29  1  0  0  0  0
  8  9  2  0  0  0  0
  8 10  1  0  0  0  0
 10 11  1  0  0  0  0
 10 17  1  0  0  0  0
 11 16  2  0  0  0  0
 11 12  1  0  0  0  0
 12 13  2  0  0  0  0
 12 30  1  0  0  0  0
 13 14  1  0  0  0  0
 13 31  1  0  0  0  0
 14 15  2  0  0  0  0
 14 32  1  0  0  0  0
 15 16  1  0  0  0  0
 15 33  1  0  0  0  0
 16 34  1  0  0  0  0
 17 18  1  1  0  0  0
 17 19  1  0  0  0  0
 19 24  2  0  0  0  0
 19 20  1  0  0  0  0
 20 21  2  0  0  0  0
 20 35  1  0  0  0  0
 21 22  1  0  0  0  0
 21 36  1  0  0  0  0
 22 23  2  0  0  0  0
 22 37  1  0  0  0  0
 23 24  1  0  0  0  0
 23 38  1  0  0  0  0
 24 39  1  0  0  0  0
M  END
$$$$
