ZINC000000001468      none
 OpenBabel11202420153D

 21 21  0  0  0  0  0  0  0  0999 V2000
   32.4909   35.6647   62.6787 C   0  0  0  0  0  0  0  0  0  0  0  0
   31.9446   34.5508   61.7834 C   0  0  0  0  0  0  0  0  0  0  0  0
   30.7378   35.2460   60.6211 S   0  0  0  0  0  0  0  0  0  0  0  0
   29.7602   36.0094   61.3146 O   0  0  0  0  0  0  0  0  0  0  0  0
   30.3593   34.2751   59.6551 O   0  0  0  0  0  0  0  0  0  0  0  0
   31.6504   36.4406   59.7021 C   0  0  0  0  0  0  0  0  0  0  0  0
   31.7135   37.7497   60.1420 C   0  0  0  0  0  0  0  0  0  0  0  0
   32.4336   38.6863   59.4250 C   0  0  0  0  0  0  0  0  0  0  0  0
   33.0823   38.3157   58.2592 C   0  0  0  0  0  0  0  0  0  0  0  0
   33.7812   39.2318   57.5540 F   0  0  0  0  0  0  0  0  0  0  0  0
   33.0137   37.0055   57.8165 C   0  0  0  0  0  0  0  0  0  0  0  0
   32.2981   36.0694   58.5385 C   0  0  0  0  0  0  0  0  0  0  0  0
   31.6708   36.1189   63.2348 H   0  0  0  0  0  0  0  0  0  0  0  0
   33.2160   35.2469   63.3771 H   0  0  0  0  0  0  0  0  0  0  0  0
   32.9749   36.4220   62.0620 H   0  0  0  0  0  0  0  0  0  0  0  0
   31.4605   33.7934   62.4000 H   0  0  0  0  0  0  0  0  0  0  0  0
   32.7647   34.0966   61.2272 H   0  0  0  0  0  0  0  0  0  0  0  0
   31.2032   38.0397   61.0487 H   0  0  0  0  0  0  0  0  0  0  0  0
   32.4861   39.7080   59.7710 H   0  0  0  0  0  0  0  0  0  0  0  0
   33.5190   36.7155   56.9071 H   0  0  0  0  0  0  0  0  0  0  0  0
   32.2444   35.0474   58.1934 H   0  0  0  0  0  0  0  0  0  0  0  0
  1  2  1  0  0  0  0
  1 13  1  0  0  0  0
  1 14  1  0  0  0  0
  1 15  1  0  0  0  0
  2  3  1  0  0  0  0
  2 16  1  0  0  0  0
  2 17  1  0  0  0  0
  3  4  2  0  0  0  0
  3  5  2  0  0  0  0
  3  6  1  0  0  0  0
  6 12  2  0  0  0  0
  6  7  1  0  0  0  0
  7  8  2  0  0  0  0
  7 18  1  0  0  0  0
  8  9  1  0  0  0  0
  8 19  1  0  0  0  0
  9 10  1  0  0  0  0
  9 11  2  0  0  0  0
 11 12  1  0  0  0  0
 11 20  1  0  0  0  0
 12 21  1  0  0  0  0
M  END
$$$$
