ZINC000000038414      none
 OpenBabel11202420153D

 36 37  0  0  0  0  0  0  0  0999 V2000
   32.2558   39.0018   67.0261 C   0  0  0  0  0  0  0  0  0  0  0  0
   32.2502   38.4250   65.6340 C   0  0  0  0  0  0  0  0  0  0  0  0
   31.4812   39.0129   64.6465 C   0  0  0  0  0  0  0  0  0  0  0  0
   31.4735   38.4863   63.3698 C   0  0  0  0  0  0  0  0  0  0  0  0
   32.2401   37.3657   63.0779 C   0  0  0  0  0  0  0  0  0  0  0  0
   32.2345   36.8297   61.7854 N   0  0  0  0  0  0  0  0  0  0  0  0
   31.1365   36.9459   61.0124 C   0  0  0  0  0  0  0  0  0  0  0  0
   30.1533   37.5149   61.4372 O   0  0  0  0  0  0  0  0  0  0  0  0
   31.1305   36.3687   59.6204 C   0  0  0  0  0  0  0  0  0  0  0  0
   32.4564   36.3957   59.0878 O   0  0  0  0  0  0  0  0  0  0  0  0
   32.8231   37.5099   58.4017 C   0  0  0  0  0  0  0  0  0  0  0  0
   32.8134   38.7474   59.0294 C   0  0  0  0  0  0  0  0  0  0  0  0
   33.1860   39.8784   58.3297 C   0  0  0  0  0  0  0  0  0  0  0  0
   33.5686   39.7784   57.0046 C   0  0  0  0  0  0  0  0  0  0  0  0
   33.5791   38.5467   56.3768 C   0  0  0  0  0  0  0  0  0  0  0  0
   33.2072   37.4123   57.0724 C   0  0  0  0  0  0  0  0  0  0  0  0
   33.2184   36.0701   56.3873 C   0  0  0  0  0  0  0  0  0  0  0  0
   33.0075   36.7746   64.0730 C   0  0  0  0  0  0  0  0  0  0  0  0
   33.0143   37.3087   65.3467 C   0  0  0  0  0  0  0  0  0  0  0  0
   31.4673   38.5350   67.6162 H   0  0  0  0  0  0  0  0  0  0  0  0
   33.2213   38.8111   67.4945 H   0  0  0  0  0  0  0  0  0  0  0  0
   32.0832   40.0769   66.9746 H   0  0  0  0  0  0  0  0  0  0  0  0
   30.8856   39.8846   64.8741 H   0  0  0  0  0  0  0  0  0  0  0  0
   30.8726   38.9459   62.5991 H   0  0  0  0  0  0  0  0  0  0  0  0
   33.0207   36.3746   61.4456 H   0  0  0  0  0  0  0  0  0  0  0  0
   30.4715   36.9600   58.9846 H   0  0  0  0  0  0  0  0  0  0  0  0
   30.7741   35.3392   59.6553 H   0  0  0  0  0  0  0  0  0  0  0  0
   32.5143   38.8260   60.0642 H   0  0  0  0  0  0  0  0  0  0  0  0
   33.1743   40.8423   58.8166 H   0  0  0  0  0  0  0  0  0  0  0  0
   33.8593   40.6640   56.4591 H   0  0  0  0  0  0  0  0  0  0  0  0
   33.8779   38.4712   55.3417 H   0  0  0  0  0  0  0  0  0  0  0  0
   32.2460   35.8873   55.9300 H   0  0  0  0  0  0  0  0  0  0  0  0
   33.9895   36.0617   55.6170 H   0  0  0  0  0  0  0  0  0  0  0  0
   33.4278   35.2902   57.1195 H   0  0  0  0  0  0  0  0  0  0  0  0
   33.6012   35.9004   63.8502 H   0  0  0  0  0  0  0  0  0  0  0  0
   33.6137   36.8516   66.1201 H   0  0  0  0  0  0  0  0  0  0  0  0
  1  2  1  0  0  0  0
  1 20  1  0  0  0  0
  1 21  1  0  0  0  0
  1 22  1  0  0  0  0
  2 19  2  0  0  0  0
  2  3  1  0  0  0  0
  3  4  2  0  0  0  0
  3 23  1  0  0  0  0
  4  5  1  0  0  0  0
  4 24  1  0  0  0  0
  5  6  1  0  0  0  0
  5 18  2  0  0  0  0
  6  7  1  0  0  0  0
  6 25  1  0  0  0  0
  7  8  2  0  0  0  0
  7  9  1  0  0  0  0
  9 10  1  0  0  0  0
  9 26  1  0  0  0  0
  9 27  1  0  0  0  0
 10 11  1  0  0  0  0
 11 16  2  0  0  0  0
 11 12  1  0  0  0  0
 12 13  2  0  0  0  0
 12 28  1  0  0  0  0
 13 14  1  0  0  0  0
 13 29  1  0  0  0  0
 14 15  2  0  0  0  0
 14 30  1  0  0  0  0
 15 16  1  0  0  0  0
 15 31  1  0  0  0  0
 16 17  1  0  0  0  0
 17 32  1  0  0  0  0
 17 33  1  0  0  0  0
 17 34  1  0  0  0  0
 18 19  1  0  0  0  0
 18 35  1  0  0  0  0
 19 36  1  0  0  0  0
M  END
$$$$
