ZINC000000051665      none
 OpenBabel11202420153D

 35 36  0  0  0  0  0  0  0  0999 V2000
   29.4998   40.8210   69.2064 C   0  0  0  0  0  0  0  0  0  0  0  0
   29.6857   40.3448   67.7887 C   0  0  0  0  0  0  0  0  0  0  0  0
   29.3574   41.0555   66.8623 O   0  0  0  0  0  0  0  0  0  0  0  0
   30.2167   39.1292   67.5503 N   0  0  0  0  0  0  0  0  0  0  0  0
   30.3894   38.6864   66.2326 C   0  0  0  0  0  0  0  0  0  0  0  0
   30.9323   37.4321   65.9871 C   0  0  0  0  0  0  0  0  0  0  0  0
   31.1069   36.9977   64.6885 C   0  0  0  0  0  0  0  0  0  0  0  0
   30.7303   37.8112   63.6276 C   0  0  0  0  0  0  0  0  0  0  0  0
   30.9020   37.3685   62.3108 N   0  0  0  0  0  0  0  0  0  0  0  0
   31.9067   36.5221   62.0099 C   0  0  0  0  0  0  0  0  0  0  0  0
   32.6645   36.1430   62.8826 O   0  0  0  0  0  0  0  0  0  0  0  0
   32.0870   36.0568   60.6258 C   0  0  0  0  0  0  0  0  0  0  0  0
   32.0442   34.7480   60.1768 C   0  0  0  0  0  0  0  0  0  0  0  0
   31.8088   33.5298   60.9840 N   0  0  0  0  0  0  0  0  0  0  0  0
   31.6252   33.6208   62.1847 O   0  0  0  0  0  0  0  0  0  0  0  0
   31.7987   32.4364   60.4477 O   0  0  0  0  0  0  0  0  0  0  0  0
   32.2697   34.8216   58.8005 C   0  0  0  0  0  0  0  0  0  0  0  0
   32.4298   36.0818   58.4866 N   0  0  0  0  0  0  0  0  0  0  0  0
   32.3242   36.8303   59.5252 N   0  0  0  0  0  0  0  0  0  0  0  0
   32.4439   38.2904   59.5291 C   0  0  0  0  0  0  0  0  0  0  0  0
   30.1830   39.0639   63.8734 C   0  0  0  0  0  0  0  0  0  0  0  0
   30.0133   39.5002   65.1719 C   0  0  0  0  0  0  0  0  0  0  0  0
   29.8494   40.0530   69.8964 H   0  0  0  0  0  0  0  0  0  0  0  0
   30.0723   41.7358   69.3604 H   0  0  0  0  0  0  0  0  0  0  0  0
   28.4434   41.0187   69.3877 H   0  0  0  0  0  0  0  0  0  0  0  0
   30.4793   38.5609   68.2912 H   0  0  0  0  0  0  0  0  0  0  0  0
   31.2212   36.7978   66.8121 H   0  0  0  0  0  0  0  0  0  0  0  0
   31.5321   36.0235   64.4975 H   0  0  0  0  0  0  0  0  0  0  0  0
   30.2976   37.6708   61.6148 H   0  0  0  0  0  0  0  0  0  0  0  0
   32.3063   33.9863   58.1167 H   0  0  0  0  0  0  0  0  0  0  0  0
   33.4671   38.5704   59.7800 H   0  0  0  0  0  0  0  0  0  0  0  0
   32.1928   38.6783   58.5419 H   0  0  0  0  0  0  0  0  0  0  0  0
   31.7610   38.7090   60.2685 H   0  0  0  0  0  0  0  0  0  0  0  0
   29.8899   39.6964   63.0484 H   0  0  0  0  0  0  0  0  0  0  0  0
   29.5877   40.4742   65.3630 H   0  0  0  0  0  0  0  0  0  0  0  0
  1  2  1  0  0  0  0
  1 23  1  0  0  0  0
  1 24  1  0  0  0  0
  1 25  1  0  0  0  0
  2  3  2  0  0  0  0
  2  4  1  0  0  0  0
  4  5  1  0  0  0  0
  4 26  1  0  0  0  0
  5 22  2  0  0  0  0
  5  6  1  0  0  0  0
  6  7  2  0  0  0  0
  6 27  1  0  0  0  0
  7  8  1  0  0  0  0
  7 28  1  0  0  0  0
  8  9  1  0  0  0  0
  8 21  2  0  0  0  0
  9 10  1  0  0  0  0
  9 29  1  0  0  0  0
 10 11  2  0  0  0  0
 10 12  1  0  0  0  0
 12 19  1  0  0  0  0
 12 13  2  0  0  0  0
 13 14  1  0  0  0  0
 13 17  1  0  0  0  0
 14 15  2  0  0  0  0
 14 16  2  0  0  0  0
 17 18  2  0  0  0  0
 17 30  1  0  0  0  0
 18 19  1  0  0  0  0
 19 20  1  0  0  0  0
 20 31  1  0  0  0  0
 20 32  1  0  0  0  0
 20 33  1  0  0  0  0
 21 22  1  0  0  0  0
 21 34  1  0  0  0  0
 22 35  1  0  0  0  0
M  END
$$$$
