ZINC000000046093      none
 OpenBabel11202420153D

 31 33  0  0  0  0  0  0  0  0999 V2000
   30.5005   39.2675   61.8748 O   0  0  0  0  0  0  0  0  0  0  0  0
   31.0936   38.5305   62.6366 C   0  0  0  0  0  0  0  0  0  0  0  0
   30.8831   38.4494   64.0975 C   0  0  0  0  0  0  0  0  0  0  0  0
   30.0474   39.0977   64.9924 C   0  0  0  0  0  0  0  0  0  0  0  0
   30.0987   38.7733   66.3393 C   0  0  0  0  0  0  0  0  0  0  0  0
   30.9811   37.8122   66.7955 C   0  0  0  0  0  0  0  0  0  0  0  0
   31.8272   37.1591   65.9125 C   0  0  0  0  0  0  0  0  0  0  0  0
   31.7869   37.4728   64.5636 C   0  0  0  0  0  0  0  0  0  0  0  0
   32.5175   36.9957   63.3704 C   0  0  0  0  0  0  0  0  0  0  0  0
   33.3843   36.1450   63.3630 O   0  0  0  0  0  0  0  0  0  0  0  0
   32.0521   37.6519   62.2921 N   0  0  0  0  0  0  0  0  0  0  0  0
   32.5131   37.4543   60.9839 N   0  0  0  0  0  0  0  0  0  0  0  0
   32.4963   38.4354   60.1349 C   0  0  0  0  0  0  0  0  0  0  0  0
   32.8757   38.2009   58.7301 C   0  0  0  0  0  0  0  0  0  0  0  0
   33.4659   39.2235   57.9819 C   0  0  0  0  0  0  0  0  0  0  0  0
   33.8197   39.0001   56.6683 C   0  0  0  0  0  0  0  0  0  0  0  0
   33.5929   37.7658   56.0837 C   0  0  0  0  0  0  0  0  0  0  0  0
   33.0087   36.7427   56.8131 C   0  0  0  0  0  0  0  0  0  0  0  0
   32.7886   35.5329   56.2320 O   0  0  0  0  0  0  0  0  0  0  0  0
   32.6518   36.9512   58.1403 C   0  0  0  0  0  0  0  0  0  0  0  0
   32.0835   35.9485   58.8601 O   0  0  0  0  0  0  0  0  0  0  0  0
   29.3559   39.8496   64.6416 H   0  0  0  0  0  0  0  0  0  0  0  0
   29.4447   39.2752   67.0370 H   0  0  0  0  0  0  0  0  0  0  0  0
   31.0117   37.5683   67.8471 H   0  0  0  0  0  0  0  0  0  0  0  0
   32.5146   36.4091   66.2746 H   0  0  0  0  0  0  0  0  0  0  0  0
   32.2045   39.4239   60.4576 H   0  0  0  0  0  0  0  0  0  0  0  0
   33.6450   40.1883   58.4329 H   0  0  0  0  0  0  0  0  0  0  0  0
   34.2755   39.7919   56.0926 H   0  0  0  0  0  0  0  0  0  0  0  0
   33.8732   37.5994   55.0540 H   0  0  0  0  0  0  0  0  0  0  0  0
   33.0725   35.4825   55.3091 H   0  0  0  0  0  0  0  0  0  0  0  0
   31.9703   35.1250   58.3660 H   0  0  0  0  0  0  0  0  0  0  0  0
  1  2  2  0  0  0  0
  2 11  1  0  0  0  0
  2  3  1  0  0  0  0
  3  8  2  0  0  0  0
  3  4  1  0  0  0  0
  4  5  2  0  0  0  0
  4 22  1  0  0  0  0
  5  6  1  0  0  0  0
  5 23  1  0  0  0  0
  6  7  2  0  0  0  0
  6 24  1  0  0  0  0
  7  8  1  0  0  0  0
  7 25  1  0  0  0  0
  8  9  1  0  0  0  0
  9 10  2  0  0  0  0
  9 11  1  0  0  0  0
 11 12  1  0  0  0  0
 12 13  2  0  0  0  0
 13 14  1  0  0  0  0
 13 26  1  0  0  0  0
 14 20  2  0  0  0  0
 14 15  1  0  0  0  0
 15 16  2  0  0  0  0
 15 27  1  0  0  0  0
 16 17  1  0  0  0  0
 16 28  1  0  0  0  0
 17 18  2  0  0  0  0
 17 29  1  0  0  0  0
 18 19  1  0  0  0  0
 18 20  1  0  0  0  0
 19 30  1  0  0  0  0
 20 21  1  0  0  0  0
 21 31  1  0  0  0  0
M  END
$$$$
