ZINC000000007528      none
 OpenBabel11202420153D

 48 49  0  0  1  0  0  0  0  0999 V2000
   33.4348   37.0655   65.4083 C   0  0  0  0  0  0  0  0  0  0  0  0
   32.1860   37.9446   65.3150 C   0  0  2  0  0  0  0  0  0  0  0  0
   32.3836   38.7876   64.6529 H   0  0  0  0  0  0  0  0  0  0  0  0
   31.8372   38.4432   66.6521 N   0  3  0  0  0  0  0  0  0  0  0  0
   32.6795   38.6920   67.1486 H   0  0  0  0  0  0  0  0  0  0  0  0
   31.3463   37.7240   67.1617 H   0  0  0  0  0  0  0  0  0  0  0  0
   30.9764   39.6268   66.5240 C   0  0  0  0  0  0  0  0  0  0  0  0
   30.6131   40.1461   67.9166 C   0  0  0  0  0  0  0  0  0  0  0  0
   29.8800   39.0718   68.6778 C   0  0  0  0  0  0  0  0  0  0  0  0
   30.5866   38.1697   69.4514 C   0  0  0  0  0  0  0  0  0  0  0  0
   29.9164   37.1874   70.1547 C   0  0  0  0  0  0  0  0  0  0  0  0
   28.5342   37.0995   70.0748 C   0  0  0  0  0  0  0  0  0  0  0  0
   27.8732   36.1301   70.7606 O   0  0  0  0  0  0  0  0  0  0  0  0
   28.4629   35.6834   71.9831 C   0  0  0  0  0  0  0  0  0  0  0  0
   29.3918   34.5307   71.7012 C   0  0  0  0  0  0  0  0  0  0  0  0
   30.5749   34.6184   71.9820 O   0  0  0  0  0  0  0  0  0  0  0  0
   28.9600   33.5103   71.1922 O   0  0  0  0  0  1  0  0  0  0  0  0
   27.8279   38.0024   69.2935 C   0  0  0  0  0  0  0  0  0  0  0  0
   28.5023   38.9866   68.5970 C   0  0  0  0  0  0  0  0  0  0  0  0
   31.0229   37.1208   64.7585 C   0  0  2  0  0  0  0  0  0  0  0  0
   30.1332   37.7470   64.6920 H   0  0  0  0  0  0  0  0  0  0  0  0
   30.7639   36.0156   65.6265 O   0  0  0  0  0  0  0  0  0  0  0  0
   31.3808   36.6092   63.3868 C   0  0  0  0  0  0  0  0  0  0  0  0
   31.6745   37.5016   62.3724 C   0  0  0  0  0  0  0  0  0  0  0  0
   32.0083   37.0351   61.1157 C   0  0  0  0  0  0  0  0  0  0  0  0
   32.0375   35.6702   60.8690 C   0  0  0  0  0  0  0  0  0  0  0  0
   32.3607   35.2088   59.6322 O   0  0  0  0  0  0  0  0  0  0  0  0
   31.7369   34.7770   61.8870 C   0  0  0  0  0  0  0  0  0  0  0  0
   31.4092   35.2485   63.1435 C   0  0  0  0  0  0  0  0  0  0  0  0
   33.6937   36.6955   64.4163 H   0  0  0  0  0  0  0  0  0  0  0  0
   34.2634   37.6524   65.8048 H   0  0  0  0  0  0  0  0  0  0  0  0
   33.2372   36.2226   66.0704 H   0  0  0  0  0  0  0  0  0  0  0  0
   30.0664   39.3580   65.9876 H   0  0  0  0  0  0  0  0  0  0  0  0
   31.5068   40.4038   65.9734 H   0  0  0  0  0  0  0  0  0  0  0  0
   31.5231   40.4149   68.4530 H   0  0  0  0  0  0  0  0  0  0  0  0
   29.9745   41.0244   67.8216 H   0  0  0  0  0  0  0  0  0  0  0  0
   31.6631   38.2353   69.5090 H   0  0  0  0  0  0  0  0  0  0  0  0
   30.4685   36.4854   70.7619 H   0  0  0  0  0  0  0  0  0  0  0  0
   29.0247   36.5005   72.4355 H   0  0  0  0  0  0  0  0  0  0  0  0
   27.6788   35.3591   72.6674 H   0  0  0  0  0  0  0  0  0  0  0  0
   26.7520   37.9358   69.2294 H   0  0  0  0  0  0  0  0  0  0  0  0
   27.9530   39.6898   67.9885 H   0  0  0  0  0  0  0  0  0  0  0  0
   30.0369   35.4484   65.3350 H   0  0  0  0  0  0  0  0  0  0  0  0
   31.6473   38.5642   62.5638 H   0  0  0  0  0  0  0  0  0  0  0  0
   32.2420   37.7324   60.3248 H   0  0  0  0  0  0  0  0  0  0  0  0
   32.3541   34.2447   59.5580 H   0  0  0  0  0  0  0  0  0  0  0  0
   31.7587   33.7140   61.6974 H   0  0  0  0  0  0  0  0  0  0  0  0
   31.1754   34.5536   63.9365 H   0  0  0  0  0  0  0  0  0  0  0  0
  1  2  1  0  0  0  0
  1 30  1  0  0  0  0
  1 31  1  0  0  0  0
  1 32  1  0  0  0  0
  2  3  1  6  0  0  0
  2  4  1  0  0  0  0
  2 20  1  0  0  0  0
  4  5  1  0  0  0  0
  4  6  1  0  0  0  0
  4  7  1  0  0  0  0
  7  8  1  0  0  0  0
  7 33  1  0  0  0  0
  7 34  1  0  0  0  0
  8  9  1  0  0  0  0
  8 35  1  0  0  0  0
  8 36  1  0  0  0  0
  9 19  2  0  0  0  0
  9 10  1  0  0  0  0
 10 11  2  0  0  0  0
 10 37  1  0  0  0  0
 11 12  1  0  0  0  0
 11 38  1  0  0  0  0
 12 13  1  0  0  0  0
 12 18  2  0  0  0  0
 13 14  1  0  0  0  0
 14 15  1  0  0  0  0
 14 39  1  0  0  0  0
 14 40  1  0  0  0  0
 15 16  2  0  0  0  0
 15 17  1  0  0  0  0
 18 19  1  0  0  0  0
 18 41  1  0  0  0  0
 19 42  1  0  0  0  0
 20 21  1  6  0  0  0
 20 22  1  0  0  0  0
 20 23  1  0  0  0  0
 22 43  1  0  0  0  0
 23 29  2  0  0  0  0
 23 24  1  0  0  0  0
 24 25  2  0  0  0  0
 24 44  1  0  0  0  0
 25 26  1  0  0  0  0
 25 45  1  0  0  0  0
 26 27  1  0  0  0  0
 26 28  2  0  0  0  0
 27 46  1  0  0  0  0
 28 29  1  0  0  0  0
 28 47  1  0  0  0  0
 29 48  1  0  0  0  0
M  CHG  1   4   1
M  END
$$$$
