ZINC000000034671      none
 OpenBabel11202420153D

 41 44  0  0  0  0  0  0  0  0999 V2000
   31.3614   37.4141   61.8889 C   0  0  0  0  0  0  0  0  0  0  0  0
   30.2735   36.5352   61.5955 O   0  0  0  0  0  0  0  0  0  0  0  0
   30.1623   35.4162   62.3566 C   0  0  0  0  0  0  0  0  0  0  0  0
   29.4101   35.4382   63.5202 C   0  0  0  0  0  0  0  0  0  0  0  0
   29.3026   34.3014   64.2973 C   0  0  0  0  0  0  0  0  0  0  0  0
   29.9390   33.1310   63.9179 C   0  0  0  0  0  0  0  0  0  0  0  0
   30.6870   33.0906   62.7602 C   0  0  0  0  0  0  0  0  0  0  0  0
   30.8035   34.2334   61.9665 C   0  0  0  0  0  0  0  0  0  0  0  0
   31.6031   34.1971   60.7263 C   0  0  0  0  0  0  0  0  0  0  0  0
   32.2571   33.1600   60.2523 N   0  0  0  0  0  0  0  0  0  0  0  0
   32.8426   33.4893   59.1549 N   0  0  0  0  0  0  0  0  0  0  0  0
   32.5860   34.7491   58.8843 C   0  0  0  0  0  0  0  0  0  0  0  0
   33.0713   35.5077   57.7145 C   0  0  0  0  0  0  0  0  0  0  0  0
   32.7156   36.8496   57.5547 C   0  0  0  0  0  0  0  0  0  0  0  0
   33.1684   37.5557   56.4632 C   0  0  0  0  0  0  0  0  0  0  0  0
   33.9775   36.9307   55.5141 C   0  0  0  0  0  0  0  0  0  0  0  0
   34.4594   37.6908   54.3357 C   0  0  0  0  0  0  0  0  0  0  0  0
   34.7052   37.0330   53.1314 C   0  0  0  0  0  0  0  0  0  0  0  0
   35.1490   37.7464   52.0367 C   0  0  0  0  0  0  0  0  0  0  0  0
   35.3596   39.1101   52.1355 C   0  0  0  0  0  0  0  0  0  0  0  0
   35.1225   39.7672   53.3295 C   0  0  0  0  0  0  0  0  0  0  0  0
   34.6740   39.0650   54.4295 C   0  0  0  0  0  0  0  0  0  0  0  0
   34.3376   35.5926   55.6752 C   0  0  0  0  0  0  0  0  0  0  0  0
   33.8861   34.8843   56.7658 C   0  0  0  0  0  0  0  0  0  0  0  0
   31.8023   35.2238   59.8747 O   0  0  0  0  0  0  0  0  0  0  0  0
   31.3336   38.2658   61.2093 H   0  0  0  0  0  0  0  0  0  0  0  0
   31.2768   37.7664   62.9168 H   0  0  0  0  0  0  0  0  0  0  0  0
   32.3034   36.8802   61.7640 H   0  0  0  0  0  0  0  0  0  0  0  0
   28.9108   36.3469   63.8224 H   0  0  0  0  0  0  0  0  0  0  0  0
   28.7181   34.3238   65.2053 H   0  0  0  0  0  0  0  0  0  0  0  0
   29.8489   32.2466   64.5312 H   0  0  0  0  0  0  0  0  0  0  0  0
   31.1817   32.1761   62.4676 H   0  0  0  0  0  0  0  0  0  0  0  0
   32.0856   37.3324   58.2870 H   0  0  0  0  0  0  0  0  0  0  0  0
   32.8934   38.5928   56.3393 H   0  0  0  0  0  0  0  0  0  0  0  0
   34.5449   35.9677   53.0543 H   0  0  0  0  0  0  0  0  0  0  0  0
   35.3358   37.2385   51.1020 H   0  0  0  0  0  0  0  0  0  0  0  0
   35.7110   39.6636   51.2773 H   0  0  0  0  0  0  0  0  0  0  0  0
   35.2890   40.8319   53.4010 H   0  0  0  0  0  0  0  0  0  0  0  0
   34.4898   39.5790   55.3612 H   0  0  0  0  0  0  0  0  0  0  0  0
   34.9670   35.1109   54.9417 H   0  0  0  0  0  0  0  0  0  0  0  0
   34.1620   33.8473   56.8884 H   0  0  0  0  0  0  0  0  0  0  0  0
  1  2  1  0  0  0  0
  1 26  1  0  0  0  0
  1 27  1  0  0  0  0
  1 28  1  0  0  0  0
  2  3  1  0  0  0  0
  3  8  2  0  0  0  0
  3  4  1  0  0  0  0
  4  5  2  0  0  0  0
  4 29  1  0  0  0  0
  5  6  1  0  0  0  0
  5 30  1  0  0  0  0
  6  7  2  0  0  0  0
  6 31  1  0  0  0  0
  7  8  1  0  0  0  0
  7 32  1  0  0  0  0
  8  9  1  0  0  0  0
  9 25  1  0  0  0  0
  9 10  2  0  0  0  0
 10 11  1  0  0  0  0
 11 12  2  0  0  0  0
 12 13  1  0  0  0  0
 12 25  1  0  0  0  0
 13 24  2  0  0  0  0
 13 14  1  0  0  0  0
 14 15  2  0  0  0  0
 14 33  1  0  0  0  0
 15 16  1  0  0  0  0
 15 34  1  0  0  0  0
 16 17  1  0  0  0  0
 16 23  2  0  0  0  0
 17 22  2  0  0  0  0
 17 18  1  0  0  0  0
 18 19  2  0  0  0  0
 18 35  1  0  0  0  0
 19 20  1  0  0  0  0
 19 36  1  0  0  0  0
 20 21  2  0  0  0  0
 20 37  1  0  0  0  0
 21 22  1  0  0  0  0
 21 38  1  0  0  0  0
 22 39  1  0  0  0  0
 23 24  1  0  0  0  0
 23 40  1  0  0  0  0
 24 41  1  0  0  0  0
M  END
$$$$
