ZINC000000008597      none
 OpenBabel11202420153D

 28 29  0  0  0  0  0  0  0  0999 V2000
   33.2537   40.2019   59.3062 N   0  0  0  0  0  0  0  0  0  0  0  0
   33.2486   39.1260   58.3931 C   0  0  0  0  0  0  0  0  0  0  0  0
   32.8200   37.8694   58.6390 C   0  0  0  0  0  0  0  0  0  0  0  0
   32.2604   37.3712   59.9466 C   0  0  0  0  0  0  0  0  0  0  0  0
   31.8922   35.8921   59.8131 C   0  0  0  0  0  0  0  0  0  0  0  0
   31.3241   35.3863   61.1406 C   0  0  0  0  0  0  0  0  0  0  0  0
   30.0748   36.1925   61.5009 C   0  0  0  0  0  0  0  0  0  0  0  0
   30.4429   37.6714   61.6343 C   0  0  0  0  0  0  0  0  0  0  0  0
   31.0111   38.1774   60.3069 C   0  0  0  0  0  0  0  0  0  0  0  0
   32.9783   37.1219   57.4988 N   0  0  0  0  0  0  0  0  0  0  0  0
   32.7479   36.1844   57.4042 H   0  0  0  0  0  0  0  0  0  0  0  0
   33.5254   37.9287   56.4946 N   0  0  0  0  0  0  0  0  0  0  0  0
   33.7373   37.6482   55.5905 H   0  0  0  0  0  0  0  0  0  0  0  0
   33.7008   39.1665   57.0018 C   0  0  0  0  0  0  0  0  0  0  0  0
   34.1521   40.1331   56.4144 O   0  0  0  0  0  0  0  0  0  0  0  0
   32.9267   40.0724   60.2102 H   0  0  0  0  0  0  0  0  0  0  0  0
   33.5881   41.0699   59.0311 H   0  0  0  0  0  0  0  0  0  0  0  0
   33.0082   37.4901   60.7306 H   0  0  0  0  0  0  0  0  0  0  0  0
   31.1444   35.7732   59.0290 H   0  0  0  0  0  0  0  0  0  0  0  0
   32.7824   35.3178   59.5565 H   0  0  0  0  0  0  0  0  0  0  0  0
   32.0719   35.5052   61.9247 H   0  0  0  0  0  0  0  0  0  0  0  0
   31.0618   34.3326   61.0455 H   0  0  0  0  0  0  0  0  0  0  0  0
   29.6700   35.8320   62.4467 H   0  0  0  0  0  0  0  0  0  0  0  0
   29.3269   36.0735   60.7169 H   0  0  0  0  0  0  0  0  0  0  0  0
   31.1907   37.7904   62.4184 H   0  0  0  0  0  0  0  0  0  0  0  0
   29.5527   38.2458   61.8912 H   0  0  0  0  0  0  0  0  0  0  0  0
   31.2734   39.2311   60.4019 H   0  0  0  0  0  0  0  0  0  0  0  0
   30.2632   38.0584   59.5229 H   0  0  0  0  0  0  0  0  0  0  0  0
  1  2  1  0  0  0  0
  1 16  1  0  0  0  0
  1 17  1  0  0  0  0
  2 14  1  0  0  0  0
  2  3  2  0  0  0  0
  3  4  1  0  0  0  0
  3 10  1  0  0  0  0
  4  9  1  0  0  0  0
  4  5  1  0  0  0  0
  4 18  1  0  0  0  0
  5  6  1  0  0  0  0
  5 19  1  0  0  0  0
  5 20  1  0  0  0  0
  6  7  1  0  0  0  0
  6 21  1  0  0  0  0
  6 22  1  0  0  0  0
  7  8  1  0  0  0  0
  7 23  1  0  0  0  0
  7 24  1  0  0  0  0
  8  9  1  0  0  0  0
  8 25  1  0  0  0  0
  8 26  1  0  0  0  0
  9 27  1  0  0  0  0
  9 28  1  0  0  0  0
 10 11  1  0  0  0  0
 10 12  1  0  0  0  0
 12 13  1  0  0  0  0
 12 14  1  0  0  0  0
 14 15  2  0  0  0  0
M  END
$$$$
