ZINC000000054544      none
 OpenBabel11202420153D

 45 46  0  0  0  0  0  0  0  0999 V2000
   29.4054   34.3863   66.9246 C   0  0  0  0  0  0  0  0  0  0  0  0
   29.2058   35.8843   66.6849 C   0  0  0  0  0  0  0  0  0  0  0  0
   29.7067   36.2346   65.3678 O   0  0  0  0  0  0  0  0  0  0  0  0
   29.6052   37.5265   64.9985 C   0  0  0  0  0  0  0  0  0  0  0  0
   29.1116   38.3382   65.7563 O   0  0  0  0  0  0  0  0  0  0  0  0
   30.0929   37.9552   63.6752 C   0  0  0  0  0  0  0  0  0  0  0  0
   30.0547   39.2101   63.1919 N   0  0  0  0  0  0  0  0  0  0  0  0
   30.5624   39.2327   62.0089 N   0  0  0  0  0  0  0  0  0  0  0  0
   30.9636   37.9315   61.6747 N   0  0  0  0  0  0  0  0  0  0  0  0
   31.5602   37.5258   60.4816 C   0  0  0  0  0  0  0  0  0  0  0  0
   31.8050   38.4148   59.5264 N   0  0  0  0  0  0  0  0  0  0  0  0
   32.3732   38.0298   58.3896 C   0  0  0  0  0  0  0  0  0  0  0  0
   32.6226   38.9368   57.4170 O   0  0  0  0  0  0  0  0  0  0  0  0
   33.2357   38.4528   56.2204 C   0  0  0  0  0  0  0  0  0  0  0  0
   32.6971   36.7557   58.2074 N   0  0  0  0  0  0  0  0  0  0  0  0
   32.4523   35.8650   59.1634 C   0  0  0  0  0  0  0  0  0  0  0  0
   32.7886   34.5400   58.9752 N   0  0  0  0  0  0  0  0  0  0  0  0
   33.4156   34.1144   57.7214 C   0  0  0  0  0  0  0  0  0  0  0  0
   32.3310   33.7161   56.7183 C   0  0  0  0  0  0  0  0  0  0  0  0
   32.5186   33.5588   60.0290 C   0  0  0  0  0  0  0  0  0  0  0  0
   31.1219   32.9671   59.8293 C   0  0  0  0  0  0  0  0  0  0  0  0
   31.8881   36.2528   60.3036 N   0  0  0  0  0  0  0  0  0  0  0  0
   30.6650   37.1466   62.7349 C   0  0  0  0  0  0  0  0  0  0  0  0
   30.9127   35.6650   62.8542 C   0  0  0  0  0  0  0  0  0  0  0  0
   28.8619   33.8216   66.1671 H   0  0  0  0  0  0  0  0  0  0  0  0
   30.4671   34.1470   66.8641 H   0  0  0  0  0  0  0  0  0  0  0  0
   29.0294   34.1234   67.9132 H   0  0  0  0  0  0  0  0  0  0  0  0
   29.7494   36.4490   67.4425 H   0  0  0  0  0  0  0  0  0  0  0  0
   28.1442   36.1237   66.7453 H   0  0  0  0  0  0  0  0  0  0  0  0
   32.5939   37.7007   55.7618 H   0  0  0  0  0  0  0  0  0  0  0  0
   33.3797   39.2803   55.5256 H   0  0  0  0  0  0  0  0  0  0  0  0
   34.2015   38.0084   56.4612 H   0  0  0  0  0  0  0  0  0  0  0  0
   34.0046   34.9354   57.3126 H   0  0  0  0  0  0  0  0  0  0  0  0
   34.0657   33.2604   57.9118 H   0  0  0  0  0  0  0  0  0  0  0  0
   31.7419   32.8950   57.1271 H   0  0  0  0  0  0  0  0  0  0  0  0
   31.6810   34.5700   56.5279 H   0  0  0  0  0  0  0  0  0  0  0  0
   32.7975   33.3995   55.7854 H   0  0  0  0  0  0  0  0  0  0  0  0
   33.2609   32.7620   59.9824 H   0  0  0  0  0  0  0  0  0  0  0  0
   32.5705   34.0472   61.0020 H   0  0  0  0  0  0  0  0  0  0  0  0
   30.9210   32.2372   60.6134 H   0  0  0  0  0  0  0  0  0  0  0  0
   30.3795   33.7639   59.8759 H   0  0  0  0  0  0  0  0  0  0  0  0
   31.0699   32.4786   58.8562 H   0  0  0  0  0  0  0  0  0  0  0  0
   30.0460   35.1204   62.4799 H   0  0  0  0  0  0  0  0  0  0  0  0
   31.7919   35.3952   62.2689 H   0  0  0  0  0  0  0  0  0  0  0  0
   31.0796   35.4077   63.9002 H   0  0  0  0  0  0  0  0  0  0  0  0
  1  2  1  0  0  0  0
  1 25  1  0  0  0  0
  1 26  1  0  0  0  0
  1 27  1  0  0  0  0
  2  3  1  0  0  0  0
  2 28  1  0  0  0  0
  2 29  1  0  0  0  0
  3  4  1  0  0  0  0
  4  5  2  0  0  0  0
  4  6  1  0  0  0  0
  6 23  2  0  0  0  0
  6  7  1  0  0  0  0
  7  8  2  0  0  0  0
  8  9  1  0  0  0  0
  9 10  1  0  0  0  0
  9 23  1  0  0  0  0
 10 22  2  0  0  0  0
 10 11  1  0  0  0  0
 11 12  2  0  0  0  0
 12 13  1  0  0  0  0
 12 15  1  0  0  0  0
 13 14  1  0  0  0  0
 14 30  1  0  0  0  0
 14 31  1  0  0  0  0
 14 32  1  0  0  0  0
 15 16  2  0  0  0  0
 16 17  1  0  0  0  0
 16 22  1  0  0  0  0
 17 18  1  0  0  0  0
 17 20  1  0  0  0  0
 18 19  1  0  0  0  0
 18 33  1  0  0  0  0
 18 34  1  0  0  0  0
 19 35  1  0  0  0  0
 19 36  1  0  0  0  0
 19 37  1  0  0  0  0
 20 21  1  0  0  0  0
 20 38  1  0  0  0  0
 20 39  1  0  0  0  0
 21 40  1  0  0  0  0
 21 41  1  0  0  0  0
 21 42  1  0  0  0  0
 23 24  1  0  0  0  0
 24 43  1  0  0  0  0
 24 44  1  0  0  0  0
 24 45  1  0  0  0  0
M  END
$$$$
