ZINC000000051418      none
 OpenBabel11202420153D

 33 35  0  0  0  0  0  0  0  0999 V2000
   29.3762   35.7854   62.6755 O   0  0  0  0  0  0  0  0  0  0  0  0
   30.1116   36.1711   61.7871 C   0  0  0  0  0  0  0  0  0  0  0  0
   30.5518   35.4208   60.7648 O   0  0  0  0  0  0  0  0  0  0  0  0
   31.3493   36.1755   59.9698 C   0  0  0  0  0  0  0  0  0  0  0  0
   32.0500   35.9054   58.8047 C   0  0  0  0  0  0  0  0  0  0  0  0
   32.7922   36.9016   58.2006 C   0  0  0  0  0  0  0  0  0  0  0  0
   32.8444   38.1681   58.7562 C   0  0  0  0  0  0  0  0  0  0  0  0
   32.1544   38.4450   59.9204 C   0  0  0  0  0  0  0  0  0  0  0  0
   31.4079   37.4502   60.5323 C   0  0  0  0  0  0  0  0  0  0  0  0
   30.6217   37.4144   61.6837 N   0  0  0  0  0  0  0  0  0  0  0  0
   30.3797   38.5293   62.6025 C   0  0  0  0  0  0  0  0  0  0  0  0
   30.4940   38.0555   63.9883 N   0  0  0  0  0  0  0  0  0  0  0  0
   29.7327   38.9157   64.9031 C   0  0  0  0  0  0  0  0  0  0  0  0
   29.7543   38.3125   66.3093 C   0  0  0  0  0  0  0  0  0  0  0  0
   31.2047   38.1884   66.7840 C   0  0  0  0  0  0  0  0  0  0  0  0
   31.9874   37.3277   65.7884 C   0  0  0  0  0  0  0  0  0  0  0  0
   31.9011   37.9595   64.3972 C   0  0  0  0  0  0  0  0  0  0  0  0
   32.0121   34.9187   58.3672 H   0  0  0  0  0  0  0  0  0  0  0  0
   33.3341   36.6911   57.2905 H   0  0  0  0  0  0  0  0  0  0  0  0
   33.4266   38.9422   58.2782 H   0  0  0  0  0  0  0  0  0  0  0  0
   32.1968   39.4336   60.3528 H   0  0  0  0  0  0  0  0  0  0  0  0
   31.1161   39.3132   62.4246 H   0  0  0  0  0  0  0  0  0  0  0  0
   29.3785   38.9268   62.4358 H   0  0  0  0  0  0  0  0  0  0  0  0
   30.1823   39.9084   64.9268 H   0  0  0  0  0  0  0  0  0  0  0  0
   28.7022   38.9922   64.5565 H   0  0  0  0  0  0  0  0  0  0  0  0
   29.2923   37.3254   66.2890 H   0  0  0  0  0  0  0  0  0  0  0  0
   29.2023   38.9593   66.9913 H   0  0  0  0  0  0  0  0  0  0  0  0
   31.2273   37.7192   67.7676 H   0  0  0  0  0  0  0  0  0  0  0  0
   31.6552   39.1794   66.8417 H   0  0  0  0  0  0  0  0  0  0  0  0
   31.5606   36.3251   65.7600 H   0  0  0  0  0  0  0  0  0  0  0  0
   33.0309   37.2710   66.0983 H   0  0  0  0  0  0  0  0  0  0  0  0
   32.4455   37.3415   63.6833 H   0  0  0  0  0  0  0  0  0  0  0  0
   32.3406   38.9567   64.4233 H   0  0  0  0  0  0  0  0  0  0  0  0
  1  2  2  0  0  0  0
  2 10  1  0  0  0  0
  2  3  1  0  0  0  0
  3  4  1  0  0  0  0
  4  9  2  0  0  0  0
  4  5  1  0  0  0  0
  5  6  2  0  0  0  0
  5 18  1  0  0  0  0
  6  7  1  0  0  0  0
  6 19  1  0  0  0  0
  7  8  2  0  0  0  0
  7 20  1  0  0  0  0
  8  9  1  0  0  0  0
  8 21  1  0  0  0  0
  9 10  1  0  0  0  0
 10 11  1  0  0  0  0
 11 12  1  0  0  0  0
 11 22  1  0  0  0  0
 11 23  1  0  0  0  0
 12 17  1  0  0  0  0
 12 13  1  0  0  0  0
 13 14  1  0  0  0  0
 13 24  1  0  0  0  0
 13 25  1  0  0  0  0
 14 15  1  0  0  0  0
 14 26  1  0  0  0  0
 14 27  1  0  0  0  0
 15 16  1  0  0  0  0
 15 28  1  0  0  0  0
 15 29  1  0  0  0  0
 16 17  1  0  0  0  0
 16 30  1  0  0  0  0
 16 31  1  0  0  0  0
 17 32  1  0  0  0  0
 17 33  1  0  0  0  0
M  END
$$$$
