ZINC000000006400      none
 OpenBabel11202420153D

 25 27  0  0  0  0  0  0  0  0999 V2000
   29.4120   39.4591   63.2415 O   0  0  0  0  0  0  0  0  0  0  0  0
   30.3814   38.7812   62.9528 C   0  0  0  0  0  0  0  0  0  0  0  0
   30.7631   38.6388   61.6652 N   0  0  0  0  0  0  0  0  0  0  0  0
   30.2624   39.0788   60.9606 H   0  0  0  0  0  0  0  0  0  0  0  0
   31.8703   37.8637   61.3478 C   0  0  0  0  0  0  0  0  0  0  0  0
   32.2712   37.7211   59.9312 C   0  0  0  0  0  0  0  0  0  0  0  0
   32.3076   36.4590   59.3370 C   0  0  0  0  0  0  0  0  0  0  0  0
   32.6829   36.3327   58.0153 C   0  0  0  0  0  0  0  0  0  0  0  0
   33.0225   37.4540   57.2794 C   0  0  0  0  0  0  0  0  0  0  0  0
   32.9887   38.7081   57.8627 C   0  0  0  0  0  0  0  0  0  0  0  0
   32.6153   38.8479   59.1834 C   0  0  0  0  0  0  0  0  0  0  0  0
   32.5818   37.2365   62.2976 C   0  0  0  0  0  0  0  0  0  0  0  0
   32.2441   37.3487   63.6307 N   0  0  0  0  0  0  0  0  0  0  0  0
   32.7782   36.8371   64.7702 C   0  0  0  0  0  0  0  0  0  0  0  0
   32.0181   37.2826   65.8019 C   0  0  0  0  0  0  0  0  0  0  0  0
   31.0445   38.0463   65.3099 N   0  0  0  0  0  0  0  0  0  0  0  0
   31.1595   38.1018   63.9989 C   0  0  0  0  0  0  0  0  0  0  0  0
   32.0431   35.5830   59.9105 H   0  0  0  0  0  0  0  0  0  0  0  0
   32.7072   35.3569   57.5530 H   0  0  0  0  0  0  0  0  0  0  0  0
   33.3155   37.3497   56.2451 H   0  0  0  0  0  0  0  0  0  0  0  0
   33.2551   39.5794   57.2829 H   0  0  0  0  0  0  0  0  0  0  0  0
   32.5890   39.8274   59.6376 H   0  0  0  0  0  0  0  0  0  0  0  0
   33.4348   36.6377   62.0142 H   0  0  0  0  0  0  0  0  0  0  0  0
   33.6443   36.1960   64.8412 H   0  0  0  0  0  0  0  0  0  0  0  0
   32.1763   37.0564   66.8461 H   0  0  0  0  0  0  0  0  0  0  0  0
  1  2  2  0  0  0  0
  2 17  1  0  0  0  0
  2  3  1  0  0  0  0
  3  4  1  0  0  0  0
  3  5  1  0  0  0  0
  5  6  1  0  0  0  0
  5 12  2  0  0  0  0
  6 11  2  0  0  0  0
  6  7  1  0  0  0  0
  7  8  2  0  0  0  0
  7 18  1  0  0  0  0
  8  9  1  0  0  0  0
  8 19  1  0  0  0  0
  9 10  2  0  0  0  0
  9 20  1  0  0  0  0
 10 11  1  0  0  0  0
 10 21  1  0  0  0  0
 11 22  1  0  0  0  0
 12 13  1  0  0  0  0
 12 23  1  0  0  0  0
 13 17  1  0  0  0  0
 13 14  1  0  0  0  0
 14 15  2  0  0  0  0
 14 24  1  0  0  0  0
 15 16  1  0  0  0  0
 15 25  1  0  0  0  0
 16 17  2  0  0  0  0
M  END
$$$$
