ZINC000000029776      none
 OpenBabel11202420163D

 29 30  0  0  0  0  0  0  0  0999 V2000
   32.3410   35.6458   53.1448 C   0  0  0  0  0  0  0  0  0  0  0  0
   32.9711   34.2951   53.3678 C   0  0  0  0  0  0  0  0  0  0  0  0
   33.4863   33.5876   52.2993 C   0  0  0  0  0  0  0  0  0  0  0  0
   34.0649   32.3486   52.5031 C   0  0  0  0  0  0  0  0  0  0  0  0
   34.1299   31.8133   53.7768 C   0  0  0  0  0  0  0  0  0  0  0  0
   33.6167   32.5154   54.8493 C   0  0  0  0  0  0  0  0  0  0  0  0
   33.0346   33.7606   54.6479 C   0  0  0  0  0  0  0  0  0  0  0  0
   32.5143   34.4745   55.7321 N   0  0  0  0  0  0  0  0  0  0  0  0
   33.3186   34.8284   56.7542 C   0  0  0  0  0  0  0  0  0  0  0  0
   34.4963   34.5271   56.7335 O   0  0  0  0  0  0  0  0  0  0  0  0
   32.7691   35.5824   57.8992 C   0  0  0  0  0  0  0  0  0  0  0  0
   32.2523   34.9015   59.0037 C   0  0  0  0  0  0  0  0  0  0  0  0
   31.7444   35.6102   60.0712 C   0  0  0  0  0  0  0  0  0  0  0  0
   31.7375   36.9965   60.0459 C   0  0  0  0  0  0  0  0  0  0  0  0
   31.2342   37.6862   61.0929 F   0  0  0  0  0  0  0  0  0  0  0  0
   32.2449   37.6775   58.9498 C   0  0  0  0  0  0  0  0  0  0  0  0
   32.7593   36.9788   57.8788 C   0  0  0  0  0  0  0  0  0  0  0  0
   33.1022   36.4209   53.2334 H   0  0  0  0  0  0  0  0  0  0  0  0
   31.9006   35.6812   52.1484 H   0  0  0  0  0  0  0  0  0  0  0  0
   31.5645   35.8123   53.8913 H   0  0  0  0  0  0  0  0  0  0  0  0
   33.4372   34.0028   51.3034 H   0  0  0  0  0  0  0  0  0  0  0  0
   34.4671   31.7973   51.6659 H   0  0  0  0  0  0  0  0  0  0  0  0
   34.5865   30.8472   53.9333 H   0  0  0  0  0  0  0  0  0  0  0  0
   33.6681   32.0972   55.8437 H   0  0  0  0  0  0  0  0  0  0  0  0
   31.5748   34.7149   55.7486 H   0  0  0  0  0  0  0  0  0  0  0  0
   32.2534   33.8216   59.0225 H   0  0  0  0  0  0  0  0  0  0  0  0
   31.3475   35.0847   60.9272 H   0  0  0  0  0  0  0  0  0  0  0  0
   32.2368   38.7575   58.9352 H   0  0  0  0  0  0  0  0  0  0  0  0
   33.1537   37.5103   57.0254 H   0  0  0  0  0  0  0  0  0  0  0  0
  1  2  1  0  0  0  0
  1 18  1  0  0  0  0
  1 19  1  0  0  0  0
  1 20  1  0  0  0  0
  2  7  2  0  0  0  0
  2  3  1  0  0  0  0
  3  4  2  0  0  0  0
  3 21  1  0  0  0  0
  4  5  1  0  0  0  0
  4 22  1  0  0  0  0
  5  6  2  0  0  0  0
  5 23  1  0  0  0  0
  6  7  1  0  0  0  0
  6 24  1  0  0  0  0
  7  8  1  0  0  0  0
  8  9  1  0  0  0  0
  8 25  1  0  0  0  0
  9 10  2  0  0  0  0
  9 11  1  0  0  0  0
 11 17  2  0  0  0  0
 11 12  1  0  0  0  0
 12 13  2  0  0  0  0
 12 26  1  0  0  0  0
 13 14  1  0  0  0  0
 13 27  1  0  0  0  0
 14 15  1  0  0  0  0
 14 16  2  0  0  0  0
 16 17  1  0  0  0  0
 16 28  1  0  0  0  0
 17 29  1  0  0  0  0
M  END
$$$$
