ZINC000000005605      none
 OpenBabel11202420153D

 20 21  0  0  0  0  0  0  0  0999 V2000
   31.9401   35.5295   60.0208 O   0  0  0  0  0  0  0  0  0  0  0  0
   32.3413   35.7803   58.9040 C   0  0  0  0  0  0  0  0  0  0  0  0
   32.4942   34.7902   57.7749 C   0  0  0  0  0  0  0  0  0  0  0  0
   33.0250   35.6060   56.5881 C   0  0  0  0  0  0  0  0  0  0  0  0
   33.1566   37.0285   57.0779 C   0  0  0  0  0  0  0  0  0  0  0  0
   33.5864   38.1647   56.4230 C   0  0  0  0  0  0  0  0  0  0  0  0
   33.6264   39.3830   57.0798 C   0  0  0  0  0  0  0  0  0  0  0  0
   33.2338   39.4746   58.4044 C   0  0  0  0  0  0  0  0  0  0  0  0
   33.2753   40.6739   59.0445 O   0  0  0  0  0  0  0  0  0  0  0  0
   32.7979   38.3413   59.0799 C   0  0  0  0  0  0  0  0  0  0  0  0
   32.4132   38.4294   60.3781 O   0  0  0  0  0  0  0  0  0  0  0  0
   32.7565   37.1010   58.4144 C   0  0  0  0  0  0  0  0  0  0  0  0
   33.2078   34.0130   58.0483 H   0  0  0  0  0  0  0  0  0  0  0  0
   31.5295   34.3465   57.5287 H   0  0  0  0  0  0  0  0  0  0  0  0
   33.9979   35.2252   56.2773 H   0  0  0  0  0  0  0  0  0  0  0  0
   32.3211   35.5596   55.7571 H   0  0  0  0  0  0  0  0  0  0  0  0
   33.8946   38.1030   55.3898 H   0  0  0  0  0  0  0  0  0  0  0  0
   33.9645   40.2653   56.5567 H   0  0  0  0  0  0  0  0  0  0  0  0
   32.9825   40.6385   59.9655 H   0  0  0  0  0  0  0  0  0  0  0  0
   32.1265   37.5891   60.7612 H   0  0  0  0  0  0  0  0  0  0  0  0
  1  2  2  0  0  0  0
  2 12  1  0  0  0  0
  2  3  1  0  0  0  0
  3  4  1  0  0  0  0
  3 13  1  0  0  0  0
  3 14  1  0  0  0  0
  4  5  1  0  0  0  0
  4 15  1  0  0  0  0
  4 16  1  0  0  0  0
  5 12  2  0  0  0  0
  5  6  1  0  0  0  0
  6  7  2  0  0  0  0
  6 17  1  0  0  0  0
  7  8  1  0  0  0  0
  7 18  1  0  0  0  0
  8  9  1  0  0  0  0
  8 10  2  0  0  0  0
  9 19  1  0  0  0  0
 10 11  1  0  0  0  0
 10 12  1  0  0  0  0
 11 20  1  0  0  0  0
M  END
$$$$
