ZINC000000044317      none
 OpenBabel11202420153D

 39 40  0  0  1  0  0  0  0  0999 V2000
   24.4607   40.4813   66.9789 C   0  0  0  0  0  0  0  0  0  0  0  0
   25.9089   40.2845   67.3462 C   0  0  0  0  0  0  0  0  0  0  0  0
   26.2397   39.7435   68.5764 C   0  0  0  0  0  0  0  0  0  0  0  0
   27.5623   39.5550   68.9175 C   0  0  0  0  0  0  0  0  0  0  0  0
   28.5709   39.9171   68.0188 C   0  0  0  0  0  0  0  0  0  0  0  0
   29.9850   39.7197   68.3753 C   0  0  0  0  0  0  0  0  0  0  0  0
   30.4476   40.2734   69.3498 O   0  0  0  0  0  0  0  0  0  0  0  0
   30.8582   38.8293   67.5291 C   0  0  0  0  0  0  0  0  0  0  0  0
   30.0036   37.7292   66.8965 C   0  0  1  0  0  0  0  0  0  0  0  0
   29.0497   38.1487   66.5769 H   0  0  0  0  0  0  0  0  0  0  0  0
   30.8721   37.0392   65.4610 S   0  0  0  0  0  0  0  0  0  0  0  0
   29.7210   35.7736   64.8575 C   0  0  0  0  0  0  0  0  0  0  0  0
   30.0416   35.4469   63.4216 C   0  0  0  0  0  0  0  0  0  0  0  0
   29.4318   36.1510   62.4001 C   0  0  0  0  0  0  0  0  0  0  0  0
   29.7297   35.8555   61.0832 C   0  0  0  0  0  0  0  0  0  0  0  0
   30.6297   34.8473   60.7872 C   0  0  0  0  0  0  0  0  0  0  0  0
   30.9986   34.4705   59.1332 Cl  0  0  0  0  0  0  0  0  0  0  0  0
   31.2354   34.1392   61.8098 C   0  0  0  0  0  0  0  0  0  0  0  0
   30.9410   34.4395   63.1265 C   0  0  0  0  0  0  0  0  0  0  0  0
   29.7594   36.6390   67.9077 C   0  0  0  0  0  0  0  0  0  0  0  0
   29.6091   35.4869   67.5377 O   0  0  0  0  0  0  0  0  0  0  0  0
   29.7122   36.9086   69.0957 O   0  0  0  0  0  1  0  0  0  0  0  0
   28.2287   40.4682   66.7798 C   0  0  0  0  0  0  0  0  0  0  0  0
   26.9013   40.6503   66.4535 C   0  0  0  0  0  0  0  0  0  0  0  0
   24.1362   41.4716   67.2984 H   0  0  0  0  0  0  0  0  0  0  0  0
   24.3444   40.3917   65.8988 H   0  0  0  0  0  0  0  0  0  0  0  0
   23.8541   39.7229   67.4737 H   0  0  0  0  0  0  0  0  0  0  0  0
   25.4597   39.4639   69.2691 H   0  0  0  0  0  0  0  0  0  0  0  0
   27.8189   39.1286   69.8760 H   0  0  0  0  0  0  0  0  0  0  0  0
   31.3280   39.4214   66.7437 H   0  0  0  0  0  0  0  0  0  0  0  0
   31.6289   38.3770   68.1533 H   0  0  0  0  0  0  0  0  0  0  0  0
   29.8187   34.8742   65.4653 H   0  0  0  0  0  0  0  0  0  0  0  0
   28.7000   36.1491   64.9255 H   0  0  0  0  0  0  0  0  0  0  0  0
   28.7260   36.9350   62.6312 H   0  0  0  0  0  0  0  0  0  0  0  0
   29.2566   36.4086   60.2852 H   0  0  0  0  0  0  0  0  0  0  0  0
   31.9378   33.3519   61.5795 H   0  0  0  0  0  0  0  0  0  0  0  0
   31.4135   33.8865   63.9250 H   0  0  0  0  0  0  0  0  0  0  0  0
   29.0018   40.7505   66.0807 H   0  0  0  0  0  0  0  0  0  0  0  0
   26.6354   41.0755   65.4969 H   0  0  0  0  0  0  0  0  0  0  0  0
  1  2  1  0  0  0  0
  1 25  1  0  0  0  0
  1 26  1  0  0  0  0
  1 27  1  0  0  0  0
  2 24  2  0  0  0  0
  2  3  1  0  0  0  0
  3  4  2  0  0  0  0
  3 28  1  0  0  0  0
  4  5  1  0  0  0  0
  4 29  1  0  0  0  0
  5  6  1  0  0  0  0
  5 23  2  0  0  0  0
  6  7  2  0  0  0  0
  6  8  1  0  0  0  0
  8  9  1  0  0  0  0
  8 30  1  0  0  0  0
  8 31  1  0  0  0  0
  9 10  1  6  0  0  0
  9 11  1  0  0  0  0
  9 20  1  0  0  0  0
 11 12  1  0  0  0  0
 12 13  1  0  0  0  0
 12 32  1  0  0  0  0
 12 33  1  0  0  0  0
 13 19  2  0  0  0  0
 13 14  1  0  0  0  0
 14 15  2  0  0  0  0
 14 34  1  0  0  0  0
 15 16  1  0  0  0  0
 15 35  1  0  0  0  0
 16 17  1  0  0  0  0
 16 18  2  0  0  0  0
 18 19  1  0  0  0  0
 18 36  1  0  0  0  0
 19 37  1  0  0  0  0
 20 21  2  0  0  0  0
 20 22  1  0  0  0  0
 23 24  1  0  0  0  0
 23 38  1  0  0  0  0
 24 39  1  0  0  0  0
M  END
$$$$
