ZINC000000050305      none
 OpenBabel11202420153D

 23 24  0  0  0  0  0  0  0  0999 V2000
   33.0847   39.1278   58.3542 N   0  0  0  0  0  0  0  0  0  0  0  0
   32.5003   38.2749   59.2742 C   0  0  0  0  0  0  0  0  0  0  0  0
   31.8179   38.7876   60.2877 N   0  0  0  0  0  0  0  0  0  0  0  0
   31.2443   38.0018   61.1878 C   0  0  0  0  0  0  0  0  0  0  0  0
   30.3537   38.6870   62.5111 Cl  0  0  0  0  0  0  0  0  0  0  0  0
   31.3641   36.6284   61.0610 C   0  0  0  0  0  0  0  0  0  0  0  0
   32.0880   36.1210   59.9843 C   0  0  0  0  0  0  0  0  0  0  0  0
   32.2307   34.7833   59.8218 O   0  0  0  0  0  0  0  0  0  0  0  0
   32.0544   34.2692   58.5756 C   0  0  0  0  0  0  0  0  0  0  0  0
   32.8671   34.6845   57.5314 C   0  0  0  0  0  0  0  0  0  0  0  0
   32.6900   34.1565   56.2670 C   0  0  0  0  0  0  0  0  0  0  0  0
   31.7036   33.2144   56.0408 C   0  0  0  0  0  0  0  0  0  0  0  0
   30.8908   32.7978   57.0787 C   0  0  0  0  0  0  0  0  0  0  0  0
   31.0637   33.3226   58.3470 C   0  0  0  0  0  0  0  0  0  0  0  0
   30.2704   32.9151   59.3617 F   0  0  0  0  0  0  0  0  0  0  0  0
   32.6410   36.9668   59.1223 N   0  0  0  0  0  0  0  0  0  0  0  0
   32.9920   40.0880   58.4558 H   0  0  0  0  0  0  0  0  0  0  0  0
   33.5868   38.7654   57.6076 H   0  0  0  0  0  0  0  0  0  0  0  0
   30.9063   35.9653   61.7801 H   0  0  0  0  0  0  0  0  0  0  0  0
   33.6383   35.4201   57.7066 H   0  0  0  0  0  0  0  0  0  0  0  0
   33.3228   34.4804   55.4539 H   0  0  0  0  0  0  0  0  0  0  0  0
   31.5674   32.8034   55.0515 H   0  0  0  0  0  0  0  0  0  0  0  0
   30.1211   32.0618   56.8996 H   0  0  0  0  0  0  0  0  0  0  0  0
  1  2  1  0  0  0  0
  1 17  1  0  0  0  0
  1 18  1  0  0  0  0
  2 16  2  0  0  0  0
  2  3  1  0  0  0  0
  3  4  2  0  0  0  0
  4  5  1  0  0  0  0
  4  6  1  0  0  0  0
  6  7  2  0  0  0  0
  6 19  1  0  0  0  0
  7  8  1  0  0  0  0
  7 16  1  0  0  0  0
  8  9  1  0  0  0  0
  9 14  2  0  0  0  0
  9 10  1  0  0  0  0
 10 11  2  0  0  0  0
 10 20  1  0  0  0  0
 11 12  1  0  0  0  0
 11 21  1  0  0  0  0
 12 13  2  0  0  0  0
 12 22  1  0  0  0  0
 13 14  1  0  0  0  0
 13 23  1  0  0  0  0
 14 15  1  0  0  0  0
M  END
$$$$
