ZINC000000011347      none
 OpenBabel11202420153D

 52 53  0  0  0  0  0  0  0  0999 V2000
   26.9815   31.3242   64.6452 C   0  0  0  0  0  0  0  0  0  0  0  0
   26.9522   32.0380   65.9981 C   0  0  0  0  0  0  0  0  0  0  0  0
   25.5002   32.2545   66.4293 C   0  0  0  0  0  0  0  0  0  0  0  0
   27.6611   31.1948   67.0265 C   0  0  0  0  0  0  0  0  0  0  0  0
   27.2047   29.9227   67.3111 C   0  0  0  0  0  0  0  0  0  0  0  0
   27.8549   29.1483   68.2543 C   0  0  0  0  0  0  0  0  0  0  0  0
   28.9636   29.6442   68.9153 C   0  0  0  0  0  0  0  0  0  0  0  0
   29.4249   30.9155   68.6351 C   0  0  0  0  0  0  0  0  0  0  0  0
   30.6334   31.4552   69.3557 C   0  0  0  0  0  0  0  0  0  0  0  0
   30.3588   31.4853   70.8606 C   0  0  0  0  0  0  0  0  0  0  0  0
   31.8385   30.5550   69.0752 C   0  0  0  0  0  0  0  0  0  0  0  0
   28.7772   31.6938   67.6848 C   0  0  0  0  0  0  0  0  0  0  0  0
   29.2454   32.9804   67.3949 N   0  0  0  0  0  0  0  0  0  0  0  0
   29.6379   33.2884   66.1429 C   0  0  0  0  0  0  0  0  0  0  0  0
   29.5850   32.4487   65.2652 O   0  0  0  0  0  0  0  0  0  0  0  0
   30.0887   34.5275   65.8636 N   0  0  0  0  0  0  0  0  0  0  0  0
   30.5150   34.8624   64.5026 C   0  0  0  0  0  0  0  0  0  0  0  0
   30.2643   36.3489   64.2409 C   0  0  0  0  0  0  0  0  0  0  0  0
   30.7028   36.6934   62.8409 C   0  0  0  0  0  0  0  0  0  0  0  0
   31.9988   37.1134   62.6062 C   0  0  0  0  0  0  0  0  0  0  0  0
   32.4024   37.4248   61.3213 C   0  0  0  0  0  0  0  0  0  0  0  0
   31.5072   37.3263   60.2726 C   0  0  0  0  0  0  0  0  0  0  0  0
   30.2097   36.9113   60.5081 C   0  0  0  0  0  0  0  0  0  0  0  0
   29.8076   36.5949   61.7922 C   0  0  0  0  0  0  0  0  0  0  0  0
   26.4807   30.3599   64.7322 H   0  0  0  0  0  0  0  0  0  0  0  0
   28.0158   31.1699   64.3381 H   0  0  0  0  0  0  0  0  0  0  0  0
   26.4687   31.9341   63.9014 H   0  0  0  0  0  0  0  0  0  0  0  0
   27.4530   33.0022   65.9110 H   0  0  0  0  0  0  0  0  0  0  0  0
   25.4794   32.7632   67.3931 H   0  0  0  0  0  0  0  0  0  0  0  0
   24.9874   32.8644   65.6854 H   0  0  0  0  0  0  0  0  0  0  0  0
   24.9994   31.2903   66.5162 H   0  0  0  0  0  0  0  0  0  0  0  0
   26.3391   29.5324   66.7962 H   0  0  0  0  0  0  0  0  0  0  0  0
   27.4958   28.1538   68.4753 H   0  0  0  0  0  0  0  0  0  0  0  0
   29.4694   29.0366   69.6511 H   0  0  0  0  0  0  0  0  0  0  0  0
   30.8449   32.4651   69.0047 H   0  0  0  0  0  0  0  0  0  0  0  0
   30.1473   30.4753   71.2117 H   0  0  0  0  0  0  0  0  0  0  0  0
   31.2329   31.8756   71.3817 H   0  0  0  0  0  0  0  0  0  0  0  0
   29.5003   32.1265   71.0604 H   0  0  0  0  0  0  0  0  0  0  0  0
   32.0342   30.5335   68.0031 H   0  0  0  0  0  0  0  0  0  0  0  0
   32.7126   30.9453   69.5963 H   0  0  0  0  0  0  0  0  0  0  0  0
   31.6270   29.5450   69.4263 H   0  0  0  0  0  0  0  0  0  0  0  0
   29.2876   33.6504   68.0950 H   0  0  0  0  0  0  0  0  0  0  0  0
   30.1309   35.1975   66.5637 H   0  0  0  0  0  0  0  0  0  0  0  0
   31.5781   34.6482   64.3918 H   0  0  0  0  0  0  0  0  0  0  0  0
   29.9480   34.2668   63.7873 H   0  0  0  0  0  0  0  0  0  0  0  0
   29.2012   36.5631   64.3517 H   0  0  0  0  0  0  0  0  0  0  0  0
   30.8314   36.9445   64.9562 H   0  0  0  0  0  0  0  0  0  0  0  0
   32.6970   37.1946   63.4261 H   0  0  0  0  0  0  0  0  0  0  0  0
   33.4159   37.7494   61.1374 H   0  0  0  0  0  0  0  0  0  0  0  0
   31.8213   37.5737   59.2694 H   0  0  0  0  0  0  0  0  0  0  0  0
   29.5102   36.8347   59.6888 H   0  0  0  0  0  0  0  0  0  0  0  0
   28.7938   36.2710   61.9762 H   0  0  0  0  0  0  0  0  0  0  0  0
  1  2  1  0  0  0  0
  1 25  1  0  0  0  0
  1 26  1  0  0  0  0
  1 27  1  0  0  0  0
  2  3  1  0  0  0  0
  2  4  1  0  0  0  0
  2 28  1  0  0  0  0
  3 29  1  0  0  0  0
  3 30  1  0  0  0  0
  3 31  1  0  0  0  0
  4 12  2  0  0  0  0
  4  5  1  0  0  0  0
  5  6  2  0  0  0  0
  5 32  1  0  0  0  0
  6  7  1  0  0  0  0
  6 33  1  0  0  0  0
  7  8  2  0  0  0  0
  7 34  1  0  0  0  0
  8  9  1  0  0  0  0
  8 12  1  0  0  0  0
  9 10  1  0  0  0  0
  9 11  1  0  0  0  0
  9 35  1  0  0  0  0
 10 36  1  0  0  0  0
 10 37  1  0  0  0  0
 10 38  1  0  0  0  0
 11 39  1  0  0  0  0
 11 40  1  0  0  0  0
 11 41  1  0  0  0  0
 12 13  1  0  0  0  0
 13 14  1  0  0  0  0
 13 42  1  0  0  0  0
 14 15  2  0  0  0  0
 14 16  1  0  0  0  0
 16 17  1  0  0  0  0
 16 43  1  0  0  0  0
 17 18  1  0  0  0  0
 17 44  1  0  0  0  0
 17 45  1  0  0  0  0
 18 19  1  0  0  0  0
 18 46  1  0  0  0  0
 18 47  1  0  0  0  0
 19 24  2  0  0  0  0
 19 20  1  0  0  0  0
 20 21  2  0  0  0  0
 20 48  1  0  0  0  0
 21 22  1  0  0  0  0
 21 49  1  0  0  0  0
 22 23  2  0  0  0  0
 22 50  1  0  0  0  0
 23 24  1  0  0  0  0
 23 51  1  0  0  0  0
 24 52  1  0  0  0  0
M  END
$$$$
