ZINC000000001882      none
 OpenBabel11202420153D

 29 30  0  0  0  0  0  0  0  0999 V2000
   34.8043   38.1922   52.6743 C   0  0  0  0  0  0  0  0  0  0  0  0
   34.4379   38.2763   54.1336 C   0  0  0  0  0  0  0  0  0  0  0  0
   34.5199   39.3450   54.8781 N   0  0  0  0  0  0  0  0  0  0  0  0
   34.1118   39.0504   56.1213 C   0  0  0  0  0  0  0  0  0  0  0  0
   33.7637   37.7498   56.1484 C   0  0  0  0  0  0  0  0  0  0  0  0
   33.2552   36.9965   57.3169 N   0  0  0  0  0  0  0  0  0  0  0  0
   33.1165   37.5568   58.3893 O   0  0  0  0  0  0  0  0  0  0  0  0
   32.9754   35.8162   57.2057 O   0  0  0  0  0  0  0  0  0  0  0  0
   33.9703   37.2582   54.8877 N   0  0  0  0  0  0  0  0  0  0  0  0
   33.7243   35.8856   54.4388 C   0  0  0  0  0  0  0  0  0  0  0  0
   34.9902   35.0495   54.6369 C   0  0  0  0  0  0  0  0  0  0  0  0
   34.7371   33.6375   54.1751 C   0  0  0  0  0  0  0  0  0  0  0  0
   33.8339   33.3751   53.1565 C   0  0  0  0  0  0  0  0  0  0  0  0
   33.6309   32.0678   52.7566 C   0  0  0  0  0  0  0  0  0  0  0  0
   34.2771   31.0764   53.3384 N   0  0  0  0  0  0  0  0  0  0  0  0
   35.1397   31.2882   54.3131 C   0  0  0  0  0  0  0  0  0  0  0  0
   35.3977   32.5694   54.7627 C   0  0  0  0  0  0  0  0  0  0  0  0
   33.9299   38.4242   52.0662 H   0  0  0  0  0  0  0  0  0  0  0  0
   35.5979   38.9070   52.4572 H   0  0  0  0  0  0  0  0  0  0  0  0
   35.1499   37.1843   52.4440 H   0  0  0  0  0  0  0  0  0  0  0  0
   34.0700   39.7360   56.9547 H   0  0  0  0  0  0  0  0  0  0  0  0
   32.9092   35.4538   55.0196 H   0  0  0  0  0  0  0  0  0  0  0  0
   33.4544   35.8916   53.3827 H   0  0  0  0  0  0  0  0  0  0  0  0
   35.8053   35.4811   54.0561 H   0  0  0  0  0  0  0  0  0  0  0  0
   35.2601   35.0434   55.6930 H   0  0  0  0  0  0  0  0  0  0  0  0
   33.2983   34.1823   52.6791 H   0  0  0  0  0  0  0  0  0  0  0  0
   32.9321   31.8554   51.9610 H   0  0  0  0  0  0  0  0  0  0  0  0
   35.6501   30.4509   54.7655 H   0  0  0  0  0  0  0  0  0  0  0  0
   36.1046   32.7365   55.5619 H   0  0  0  0  0  0  0  0  0  0  0  0
  1  2  1  0  0  0  0
  1 18  1  0  0  0  0
  1 19  1  0  0  0  0
  1 20  1  0  0  0  0
  2  9  1  0  0  0  0
  2  3  2  0  0  0  0
  3  4  1  0  0  0  0
  4  5  2  0  0  0  0
  4 21  1  0  0  0  0
  5  6  1  0  0  0  0
  5  9  1  0  0  0  0
  6  7  2  0  0  0  0
  6  8  2  0  0  0  0
  9 10  1  0  0  0  0
 10 11  1  0  0  0  0
 10 22  1  0  0  0  0
 10 23  1  0  0  0  0
 11 12  1  0  0  0  0
 11 24  1  0  0  0  0
 11 25  1  0  0  0  0
 12 17  2  0  0  0  0
 12 13  1  0  0  0  0
 13 14  2  0  0  0  0
 13 26  1  0  0  0  0
 14 15  1  0  0  0  0
 14 27  1  0  0  0  0
 15 16  2  0  0  0  0
 16 17  1  0  0  0  0
 16 28  1  0  0  0  0
 17 29  1  0  0  0  0
M  END
$$$$
