ZINC000000038794      none
 OpenBabel11202420153D

 34 35  0  0  1  0  0  0  0  0999 V2000
   33.0206   34.5142   55.9889 C   0  0  0  0  0  0  0  0  0  0  0  0
   32.4622   33.6359   57.1103 C   0  0  0  0  0  0  0  0  0  0  0  0
   32.6592   34.2861   58.3675 O   0  0  0  0  0  0  0  0  0  0  0  0
   31.5557   34.5683   59.0906 C   0  0  0  0  0  0  0  0  0  0  0  0
   30.4561   34.2697   58.6642 O   0  0  0  0  0  0  0  0  0  0  0  0
   31.6773   35.2120   60.3465 C   0  0  0  0  0  0  0  0  0  0  0  0
   32.3816   34.6246   61.3220 C   0  0  0  0  0  0  0  0  0  0  0  0
   33.0247   33.2888   61.0515 C   0  0  0  0  0  0  0  0  0  0  0  0
   32.5340   35.1832   62.5314 O   0  0  0  0  0  0  0  0  0  0  0  0
   31.6852   36.1494   62.9233 C   0  0  0  0  0  0  0  0  0  0  0  0
   31.5805   36.4444   64.2598 N   0  0  0  0  0  0  0  0  0  0  0  0
   30.9300   36.8398   62.0352 C   0  0  0  0  0  0  0  0  0  0  0  0
   30.0380   37.8572   62.5043 C   0  0  0  0  0  0  0  0  0  0  0  0
   29.3306   38.6643   62.8765 N   0  0  0  0  0  0  0  0  0  0  0  0
   31.0134   36.5449   60.5617 C   0  0  1  0  0  0  0  0  0  0  0  0
   30.0089   36.5216   60.1393 H   0  0  0  0  0  0  0  0  0  0  0  0
   31.8176   37.6217   59.8800 C   0  0  0  0  0  0  0  0  0  0  0  0
   32.0914   37.6852   58.5645 C   0  0  0  0  0  0  0  0  0  0  0  0
   32.8643   38.8519   58.3629 C   0  0  0  0  0  0  0  0  0  0  0  0
   33.0235   39.4270   59.5684 C   0  0  0  0  0  0  0  0  0  0  0  0
   32.3874   38.6775   60.4836 O   0  0  0  0  0  0  0  0  0  0  0  0
   32.5031   35.4736   55.9868 H   0  0  0  0  0  0  0  0  0  0  0  0
   34.0862   34.6765   56.1510 H   0  0  0  0  0  0  0  0  0  0  0  0
   32.8703   34.0183   55.0299 H   0  0  0  0  0  0  0  0  0  0  0  0
   32.9797   32.6766   57.1124 H   0  0  0  0  0  0  0  0  0  0  0  0
   31.3966   33.4735   56.9482 H   0  0  0  0  0  0  0  0  0  0  0  0
   33.5549   32.9537   61.9430 H   0  0  0  0  0  0  0  0  0  0  0  0
   32.2559   32.5614   60.7911 H   0  0  0  0  0  0  0  0  0  0  0  0
   33.7287   33.3852   60.2248 H   0  0  0  0  0  0  0  0  0  0  0  0
   30.9720   37.1388   64.5571 H   0  0  0  0  0  0  0  0  0  0  0  0
   32.1150   35.9583   64.9071 H   0  0  0  0  0  0  0  0  0  0  0  0
   31.7789   36.9814   57.8073 H   0  0  0  0  0  0  0  0  0  0  0  0
   33.2555   39.2101   57.4222 H   0  0  0  0  0  0  0  0  0  0  0  0
   33.5704   40.3369   59.7668 H   0  0  0  0  0  0  0  0  0  0  0  0
  1  2  1  0  0  0  0
  1 22  1  0  0  0  0
  1 23  1  0  0  0  0
  1 24  1  0  0  0  0
  2  3  1  0  0  0  0
  2 25  1  0  0  0  0
  2 26  1  0  0  0  0
  3  4  1  0  0  0  0
  4  5  2  0  0  0  0
  4  6  1  0  0  0  0
  6 15  1  0  0  0  0
  6  7  2  0  0  0  0
  7  8  1  0  0  0  0
  7  9  1  0  0  0  0
  8 27  1  0  0  0  0
  8 28  1  0  0  0  0
  8 29  1  0  0  0  0
  9 10  1  0  0  0  0
 10 11  1  0  0  0  0
 10 12  2  0  0  0  0
 11 30  1  0  0  0  0
 11 31  1  0  0  0  0
 12 13  1  0  0  0  0
 12 15  1  0  0  0  0
 13 14  3  0  0  0  0
 15 16  1  6  0  0  0
 15 17  1  0  0  0  0
 17 21  1  0  0  0  0
 17 18  2  0  0  0  0
 18 19  1  0  0  0  0
 18 32  1  0  0  0  0
 19 20  2  0  0  0  0
 19 33  1  0  0  0  0
 20 21  1  0  0  0  0
 20 34  1  0  0  0  0
M  END
$$$$
