ZINC000000047516      none
 OpenBabel11202420153D

 23 24  0  0  0  0  0  0  0  0999 V2000
   32.0584   34.2927   61.9928 C   0  0  0  0  0  0  0  0  0  0  0  0
   31.2305   35.4814   61.5771 C   0  0  0  0  0  0  0  0  0  0  0  0
   30.1185   35.6374   62.0376 O   0  0  0  0  0  0  0  0  0  0  0  0
   31.7650   36.4442   60.6136 C   0  0  0  0  0  0  0  0  0  0  0  0
   32.1306   36.0382   59.3349 C   0  0  0  0  0  0  0  0  0  0  0  0
   32.6386   37.0026   58.4356 C   0  0  0  0  0  0  0  0  0  0  0  0
   33.0122   36.6251   57.1339 C   0  0  0  0  0  0  0  0  0  0  0  0
   33.5059   37.5560   56.2711 C   0  0  0  0  0  0  0  0  0  0  0  0
   33.6440   38.8858   56.6704 C   0  0  0  0  0  0  0  0  0  0  0  0
   34.1372   39.8020   55.8001 O   0  0  0  0  0  0  0  0  0  0  0  0
   33.2808   39.2777   57.9487 C   0  0  0  0  0  0  0  0  0  0  0  0
   32.7759   38.3446   58.8428 C   0  0  0  0  0  0  0  0  0  0  0  0
   32.4236   38.7310   60.0878 O   0  0  0  0  0  0  0  0  0  0  0  0
   31.9312   37.8562   60.9808 C   0  0  0  0  0  0  0  0  0  0  0  0
   31.6223   38.2345   62.0951 O   0  0  0  0  0  0  0  0  0  0  0  0
   32.6589   34.5550   62.8639 H   0  0  0  0  0  0  0  0  0  0  0  0
   31.3999   33.4609   62.2427 H   0  0  0  0  0  0  0  0  0  0  0  0
   32.7152   34.0028   61.1727 H   0  0  0  0  0  0  0  0  0  0  0  0
   32.0252   35.0064   59.0338 H   0  0  0  0  0  0  0  0  0  0  0  0
   32.9075   35.5975   56.8184 H   0  0  0  0  0  0  0  0  0  0  0  0
   33.7925   37.2631   55.2718 H   0  0  0  0  0  0  0  0  0  0  0  0
   34.3629   39.4390   54.9327 H   0  0  0  0  0  0  0  0  0  0  0  0
   33.3912   40.3092   58.2492 H   0  0  0  0  0  0  0  0  0  0  0  0
  1  2  1  0  0  0  0
  1 16  1  0  0  0  0
  1 17  1  0  0  0  0
  1 18  1  0  0  0  0
  2  3  2  0  0  0  0
  2  4  1  0  0  0  0
  4 14  1  0  0  0  0
  4  5  2  0  0  0  0
  5  6  1  0  0  0  0
  5 19  1  0  0  0  0
  6 12  2  0  0  0  0
  6  7  1  0  0  0  0
  7  8  2  0  0  0  0
  7 20  1  0  0  0  0
  8  9  1  0  0  0  0
  8 21  1  0  0  0  0
  9 10  1  0  0  0  0
  9 11  2  0  0  0  0
 10 22  1  0  0  0  0
 11 12  1  0  0  0  0
 11 23  1  0  0  0  0
 12 13  1  0  0  0  0
 13 14  1  0  0  0  0
 14 15  2  0  0  0  0
M  END
$$$$
