ZINC000000040581      none
 OpenBabel11202420153D

 30 32  0  0  0  0  0  0  0  0999 V2000
   35.4405   39.5100   52.7357 C   0  0  0  0  0  0  0  0  0  0  0  0
   34.8584   39.4218   54.1230 C   0  0  0  0  0  0  0  0  0  0  0  0
   34.6930   40.4300   54.7763 O   0  0  0  0  0  0  0  0  0  0  0  0
   34.5219   38.2225   54.6377 N   0  0  0  0  0  0  0  0  0  0  0  0
   33.9815   38.1420   55.9110 C   0  0  0  0  0  0  0  0  0  0  0  0
   33.6237   37.0493   56.4886 N   0  0  0  0  0  0  0  0  0  0  0  0
   33.1118   37.1302   57.7359 C   0  0  0  0  0  0  0  0  0  0  0  0
   32.6560   36.0930   58.5618 C   0  0  0  0  0  0  0  0  0  0  0  0
   32.1493   36.3567   59.8423 C   0  0  0  0  0  0  0  0  0  0  0  0
   31.6744   35.4823   60.7558 N   0  0  0  0  0  0  0  0  0  0  0  0
   31.2555   35.9506   61.8787 C   0  0  0  0  0  0  0  0  0  0  0  0
   30.7425   35.1839   62.9125 N   0  0  0  0  0  0  0  0  0  0  0  0
   30.6553   33.8455   62.7798 C   0  0  0  0  0  0  0  0  0  0  0  0
   30.0973   33.0117   63.9042 C   0  0  0  0  0  0  0  0  0  0  0  0
   31.0261   33.3122   61.7556 O   0  0  0  0  0  0  0  0  0  0  0  0
   31.4264   37.6996   61.9172 S   0  0  0  0  0  0  0  0  0  0  0  0
   32.1039   37.6837   60.2904 C   0  0  0  0  0  0  0  0  0  0  0  0
   32.5533   38.7146   59.4777 C   0  0  0  0  0  0  0  0  0  0  0  0
   33.0539   38.4471   58.2114 C   0  0  0  0  0  0  0  0  0  0  0  0
   33.6951   39.5176   56.9672 S   0  0  0  0  0  0  0  0  0  0  0  0
   34.6351   39.6290   52.0108 H   0  0  0  0  0  0  0  0  0  0  0  0
   36.1116   40.3667   52.6771 H   0  0  0  0  0  0  0  0  0  0  0  0
   35.9953   38.5979   52.5159 H   0  0  0  0  0  0  0  0  0  0  0  0
   34.6543   37.4161   54.1151 H   0  0  0  0  0  0  0  0  0  0  0  0
   32.6954   35.0742   58.2057 H   0  0  0  0  0  0  0  0  0  0  0  0
   30.4459   35.6104   63.7317 H   0  0  0  0  0  0  0  0  0  0  0  0
   29.0189   32.9110   63.7813 H   0  0  0  0  0  0  0  0  0  0  0  0
   30.5584   32.0240   63.8877 H   0  0  0  0  0  0  0  0  0  0  0  0
   30.3108   33.4965   64.8567 H   0  0  0  0  0  0  0  0  0  0  0  0
   32.5136   39.7335   59.8337 H   0  0  0  0  0  0  0  0  0  0  0  0
  1  2  1  0  0  0  0
  1 21  1  0  0  0  0
  1 22  1  0  0  0  0
  1 23  1  0  0  0  0
  2  3  2  0  0  0  0
  2  4  1  0  0  0  0
  4  5  1  0  0  0  0
  4 24  1  0  0  0  0
  5 20  1  0  0  0  0
  5  6  2  0  0  0  0
  6  7  1  0  0  0  0
  7 19  2  0  0  0  0
  7  8  1  0  0  0  0
  8  9  2  0  0  0  0
  8 25  1  0  0  0  0
  9 17  1  0  0  0  0
  9 10  1  0  0  0  0
 10 11  2  0  0  0  0
 11 12  1  0  0  0  0
 11 16  1  0  0  0  0
 12 13  1  0  0  0  0
 12 26  1  0  0  0  0
 13 14  1  0  0  0  0
 13 15  2  0  0  0  0
 14 27  1  0  0  0  0
 14 28  1  0  0  0  0
 14 29  1  0  0  0  0
 16 17  1  0  0  0  0
 17 18  2  0  0  0  0
 18 19  1  0  0  0  0
 18 30  1  0  0  0  0
 19 20  1  0  0  0  0
M  END
$$$$
