ZINC000000004187      none
 OpenBabel11202420153D

 28 29  0  0  0  0  0  0  0  0999 V2000
   32.8606   38.9523   56.2148 C   0  0  0  0  0  0  0  0  0  0  0  0
   33.6787   37.6613   56.2856 C   0  0  0  0  0  0  0  0  0  0  0  0
   33.1592   36.8124   57.3606 N   0  0  0  0  0  0  0  0  0  0  0  0
   32.9228   35.4543   57.2766 C   0  0  0  0  0  0  0  0  0  0  0  0
   33.1522   34.6093   56.0836 C   0  0  0  0  0  0  0  0  0  0  0  0
   34.0423   33.5369   56.1460 C   0  0  0  0  0  0  0  0  0  0  0  0
   34.2526   32.7529   55.0306 C   0  0  0  0  0  0  0  0  0  0  0  0
   33.5822   33.0285   53.8508 C   0  0  0  0  0  0  0  0  0  0  0  0
   33.8521   32.0379   52.4510 Cl  0  0  0  0  0  0  0  0  0  0  0  0
   32.7015   34.0948   53.7818 C   0  0  0  0  0  0  0  0  0  0  0  0
   32.4794   34.8824   54.8923 C   0  0  0  0  0  0  0  0  0  0  0  0
   32.4584   35.0429   58.4228 N   0  0  0  0  0  0  0  0  0  0  0  0
   32.3940   36.1452   59.2860 N   0  0  0  0  0  0  0  0  0  0  0  0
   31.9323   36.1308   60.6763 C   0  0  0  0  0  0  0  0  0  0  0  0
   32.8296   37.2227   58.6015 C   0  0  0  0  0  0  0  0  0  0  0  0
   32.9102   38.3609   59.0277 O   0  0  0  0  0  0  0  0  0  0  0  0
   31.8021   38.7073   56.1269 H   0  0  0  0  0  0  0  0  0  0  0  0
   33.0244   39.5364   57.1203 H   0  0  0  0  0  0  0  0  0  0  0  0
   33.1723   39.5328   55.3465 H   0  0  0  0  0  0  0  0  0  0  0  0
   34.7224   37.9032   56.4857 H   0  0  0  0  0  0  0  0  0  0  0  0
   33.6042   37.1314   55.3359 H   0  0  0  0  0  0  0  0  0  0  0  0
   34.5661   33.3212   57.0654 H   0  0  0  0  0  0  0  0  0  0  0  0
   34.9418   31.9227   55.0775 H   0  0  0  0  0  0  0  0  0  0  0  0
   32.1846   34.3080   52.8577 H   0  0  0  0  0  0  0  0  0  0  0  0
   31.7890   35.7111   54.8387 H   0  0  0  0  0  0  0  0  0  0  0  0
   30.8583   36.3139   60.7044 H   0  0  0  0  0  0  0  0  0  0  0  0
   32.1470   35.1588   61.1204 H   0  0  0  0  0  0  0  0  0  0  0  0
   32.4485   36.9090   61.2386 H   0  0  0  0  0  0  0  0  0  0  0  0
  1  2  1  0  0  0  0
  1 17  1  0  0  0  0
  1 18  1  0  0  0  0
  1 19  1  0  0  0  0
  2  3  1  0  0  0  0
  2 20  1  0  0  0  0
  2 21  1  0  0  0  0
  3 15  1  0  0  0  0
  3  4  1  0  0  0  0
  4  5  1  0  0  0  0
  4 12  2  0  0  0  0
  5 11  2  0  0  0  0
  5  6  1  0  0  0  0
  6  7  2  0  0  0  0
  6 22  1  0  0  0  0
  7  8  1  0  0  0  0
  7 23  1  0  0  0  0
  8  9  1  0  0  0  0
  8 10  2  0  0  0  0
 10 11  1  0  0  0  0
 10 24  1  0  0  0  0
 11 25  1  0  0  0  0
 12 13  1  0  0  0  0
 13 14  1  0  0  0  0
 13 15  1  0  0  0  0
 14 26  1  0  0  0  0
 14 27  1  0  0  0  0
 14 28  1  0  0  0  0
 15 16  2  0  0  0  0
M  END
$$$$
