ZINC000000001340      none
 OpenBabel11202420153D

 23 22  0  0  0  0  0  0  0  0999 V2000
   29.3306   36.6904   60.0292 C   0  0  0  0  0  0  0  0  0  0  0  0
   30.3968   37.4408   59.2734 C   0  0  0  0  0  0  0  0  0  0  0  0
   31.6721   37.3312   59.6370 C   0  0  0  0  0  0  0  0  0  0  0  0
   32.7383   38.0816   58.8811 C   0  0  0  0  0  0  0  0  0  0  0  0
   32.0920   38.8875   57.7526 C   0  0  0  0  0  0  0  0  0  0  0  0
   32.0410   36.4780   60.7759 C   0  0  0  0  0  0  0  0  0  0  0  0
   32.6002   36.9612   61.7412 O   0  0  0  0  0  0  0  0  0  0  0  0
   31.7592   35.1603   60.7498 N   0  0  0  0  0  0  0  0  0  0  0  0
   32.0975   34.3782   61.7941 C   0  0  0  0  0  0  0  0  0  0  0  0
   31.8157   33.0605   61.7681 N   0  0  0  0  0  0  0  0  0  0  0  0
   32.6565   34.8612   62.7593 O   0  0  0  0  0  0  0  0  0  0  0  0
   29.5297   35.6202   59.9720 H   0  0  0  0  0  0  0  0  0  0  0  0
   29.3350   37.0055   61.0727 H   0  0  0  0  0  0  0  0  0  0  0  0
   28.3561   36.9026   59.5897 H   0  0  0  0  0  0  0  0  0  0  0  0
   30.1253   38.0710   58.4394 H   0  0  0  0  0  0  0  0  0  0  0  0
   33.2568   38.7585   59.5602 H   0  0  0  0  0  0  0  0  0  0  0  0
   33.4514   37.3732   58.4593 H   0  0  0  0  0  0  0  0  0  0  0  0
   32.8630   39.4302   57.2059 H   0  0  0  0  0  0  0  0  0  0  0  0
   31.5734   38.2106   57.0736 H   0  0  0  0  0  0  0  0  0  0  0  0
   31.3789   39.5957   58.1743 H   0  0  0  0  0  0  0  0  0  0  0  0
   31.3131   34.7748   59.9796 H   0  0  0  0  0  0  0  0  0  0  0  0
   31.3695   32.6750   60.9978 H   0  0  0  0  0  0  0  0  0  0  0  0
   32.0591   32.4976   62.5196 H   0  0  0  0  0  0  0  0  0  0  0  0
  1  2  1  0  0  0  0
  1 12  1  0  0  0  0
  1 13  1  0  0  0  0
  1 14  1  0  0  0  0
  2  3  2  0  0  0  0
  2 15  1  0  0  0  0
  3  4  1  0  0  0  0
  3  6  1  0  0  0  0
  4  5  1  0  0  0  0
  4 16  1  0  0  0  0
  4 17  1  0  0  0  0
  5 18  1  0  0  0  0
  5 19  1  0  0  0  0
  5 20  1  0  0  0  0
  6  7  2  0  0  0  0
  6  8  1  0  0  0  0
  8  9  1  0  0  0  0
  8 21  1  0  0  0  0
  9 10  1  0  0  0  0
  9 11  2  0  0  0  0
 10 22  1  0  0  0  0
 10 23  1  0  0  0  0
M  END
$$$$
