ZINC000000003736      none
 OpenBabel11202420153D

 20 20  0  0  0  0  0  0  0  0999 V2000
   34.2791   33.7939   56.4679 C   0  0  0  0  0  0  0  0  0  0  0  0
   33.4261   34.2700   57.6154 C   0  0  0  0  0  0  0  0  0  0  0  0
   33.6333   33.8599   58.7329 O   0  0  0  0  0  0  0  0  0  0  0  0
   32.4354   35.1502   57.3959 O   0  0  0  0  0  0  0  0  0  0  0  0
   32.7496   36.4659   57.4878 C   0  0  0  0  0  0  0  0  0  0  0  0
   32.6062   37.0344   58.7388 C   0  0  0  0  0  0  0  0  0  0  0  0
   32.8518   38.3486   59.1286 C   0  0  0  0  0  0  0  0  0  0  0  0
   33.2978   39.4089   58.3682 C   0  0  0  0  0  0  0  0  0  0  0  0
   33.6183   39.4426   57.0126 C   0  0  0  0  0  0  0  0  0  0  0  0
   33.5699   38.4220   56.0901 C   0  0  0  0  0  0  0  0  0  0  0  0
   33.1830   37.0839   56.2879 C   0  0  0  0  0  0  0  0  0  0  0  0
   33.2261   36.3631   55.3002 O   0  0  0  0  0  0  0  0  0  0  0  0
   34.7809   34.6464   56.0101 H   0  0  0  0  0  0  0  0  0  0  0  0
   35.0241   33.0890   56.8369 H   0  0  0  0  0  0  0  0  0  0  0  0
   33.6493   33.3020   55.7266 H   0  0  0  0  0  0  0  0  0  0  0  0
   32.2624   36.3708   59.5184 H   0  0  0  0  0  0  0  0  0  0  0  0
   32.6673   38.5675   60.1700 H   0  0  0  0  0  0  0  0  0  0  0  0
   33.4145   40.3435   58.8968 H   0  0  0  0  0  0  0  0  0  0  0  0
   33.9492   40.3986   56.6345 H   0  0  0  0  0  0  0  0  0  0  0  0
   33.8677   38.6820   55.0850 H   0  0  0  0  0  0  0  0  0  0  0  0
  1  2  1  0  0  0  0
  1 13  1  0  0  0  0
  1 14  1  0  0  0  0
  1 15  1  0  0  0  0
  2  3  2  0  0  0  0
  2  4  1  0  0  0  0
  4  5  1  0  0  0  0
  5 11  1  0  0  0  0
  5  6  2  0  0  0  0
  6  7  1  0  0  0  0
  6 16  1  0  0  0  0
  7  8  2  0  0  0  0
  7 17  1  0  0  0  0
  8  9  1  0  0  0  0
  8 18  1  0  0  0  0
  9 10  2  0  0  0  0
  9 19  1  0  0  0  0
 10 11  1  0  0  0  0
 10 20  1  0  0  0  0
 11 12  2  0  0  0  0
M  END
$$$$
