ZINC000000007747      none
 OpenBabel11202420153D

 40 41  0  0  0  0  0  0  0  0999 V2000
   35.2813   33.7553   55.3280 C   0  0  0  0  0  0  0  0  0  0  0  0
   34.0708   33.6728   54.3960 C   0  0  0  0  0  0  0  0  0  0  0  0
   33.3901   35.0410   54.3216 C   0  0  0  0  0  0  0  0  0  0  0  0
   32.9366   35.4520   55.6987 C   0  0  0  0  0  0  0  0  0  0  0  0
   32.1446   34.7634   56.3070 O   0  0  0  0  0  0  0  0  0  0  0  0
   33.4108   36.5846   56.2544 N   0  0  0  0  0  0  0  0  0  0  0  0
   32.9891   36.9667   57.5345 C   0  0  0  0  0  0  0  0  0  0  0  0
   32.9296   38.3120   57.8734 C   0  0  0  0  0  0  0  0  0  0  0  0
   32.5143   38.6881   59.1354 C   0  0  0  0  0  0  0  0  0  0  0  0
   32.1568   37.7220   60.0650 C   0  0  0  0  0  0  0  0  0  0  0  0
   31.7484   38.0928   61.3075 O   0  0  0  0  0  0  0  0  0  0  0  0
   31.4078   37.1129   62.1864 C   0  0  0  0  0  0  0  0  0  0  0  0
   32.3403   36.1565   62.5561 C   0  0  0  0  0  0  0  0  0  0  0  0
   31.9908   35.1582   63.4460 C   0  0  0  0  0  0  0  0  0  0  0  0
   30.7146   35.1174   63.9775 C   0  0  0  0  0  0  0  0  0  0  0  0
   29.7799   36.0676   63.6127 C   0  0  0  0  0  0  0  0  0  0  0  0
   30.1218   37.0681   62.7171 C   0  0  0  0  0  0  0  0  0  0  0  0
   29.2034   38.0043   62.3579 O   0  0  0  0  0  0  0  0  0  0  0  0
   29.1390   39.1891   63.1544 C   0  0  0  0  0  0  0  0  0  0  0  0
   32.2215   36.3773   59.7287 C   0  0  0  0  0  0  0  0  0  0  0  0
   32.6308   36.0004   58.4651 C   0  0  0  0  0  0  0  0  0  0  0  0
   35.7662   32.7805   55.3811 H   0  0  0  0  0  0  0  0  0  0  0  0
   35.9867   34.4916   54.9432 H   0  0  0  0  0  0  0  0  0  0  0  0
   34.9530   34.0526   56.3242 H   0  0  0  0  0  0  0  0  0  0  0  0
   33.3653   32.9365   54.7809 H   0  0  0  0  0  0  0  0  0  0  0  0
   34.3988   33.3756   53.3998 H   0  0  0  0  0  0  0  0  0  0  0  0
   32.5278   34.9823   53.6575 H   0  0  0  0  0  0  0  0  0  0  0  0
   34.0957   35.7773   53.9367 H   0  0  0  0  0  0  0  0  0  0  0  0
   34.0442   37.1353   55.7680 H   0  0  0  0  0  0  0  0  0  0  0  0
   33.2085   39.0640   57.1501 H   0  0  0  0  0  0  0  0  0  0  0  0
   32.4680   39.7344   59.3991 H   0  0  0  0  0  0  0  0  0  0  0  0
   33.3387   36.1886   62.1455 H   0  0  0  0  0  0  0  0  0  0  0  0
   32.7171   34.4111   63.7301 H   0  0  0  0  0  0  0  0  0  0  0  0
   30.4471   34.3378   64.6756 H   0  0  0  0  0  0  0  0  0  0  0  0
   28.7829   36.0308   64.0262 H   0  0  0  0  0  0  0  0  0  0  0  0
   30.1024   39.6982   63.1267 H   0  0  0  0  0  0  0  0  0  0  0  0
   28.3672   39.8503   62.7603 H   0  0  0  0  0  0  0  0  0  0  0  0
   28.8984   38.9225   64.1835 H   0  0  0  0  0  0  0  0  0  0  0  0
   31.9474   35.6256   60.4542 H   0  0  0  0  0  0  0  0  0  0  0  0
   32.6773   34.9539   58.2021 H   0  0  0  0  0  0  0  0  0  0  0  0
  1  2  1  0  0  0  0
  1 22  1  0  0  0  0
  1 23  1  0  0  0  0
  1 24  1  0  0  0  0
  2  3  1  0  0  0  0
  2 25  1  0  0  0  0
  2 26  1  0  0  0  0
  3  4  1  0  0  0  0
  3 27  1  0  0  0  0
  3 28  1  0  0  0  0
  4  5  2  0  0  0  0
  4  6  1  0  0  0  0
  6  7  1  0  0  0  0
  6 29  1  0  0  0  0
  7 21  2  0  0  0  0
  7  8  1  0  0  0  0
  8  9  2  0  0  0  0
  8 30  1  0  0  0  0
  9 10  1  0  0  0  0
  9 31  1  0  0  0  0
 10 11  1  0  0  0  0
 10 20  2  0  0  0  0
 11 12  1  0  0  0  0
 12 17  2  0  0  0  0
 12 13  1  0  0  0  0
 13 14  2  0  0  0  0
 13 32  1  0  0  0  0
 14 15  1  0  0  0  0
 14 33  1  0  0  0  0
 15 16  2  0  0  0  0
 15 34  1  0  0  0  0
 16 17  1  0  0  0  0
 16 35  1  0  0  0  0
 17 18  1  0  0  0  0
 18 19  1  0  0  0  0
 19 36  1  0  0  0  0
 19 37  1  0  0  0  0
 19 38  1  0  0  0  0
 20 21  1  0  0  0  0
 20 39  1  0  0  0  0
 21 40  1  0  0  0  0
M  END
$$$$
