ZINC000000028974      none
 OpenBabel11202420163D

 34 34  0  0  1  0  0  0  0  0999 V2000
   34.5450   31.9009   52.9986 C   0  0  0  0  0  0  0  0  0  0  0  0
   34.6404   33.2576   53.6994 C   0  0  0  0  0  0  0  0  0  0  0  0
   33.6161   33.3186   54.8342 C   0  0  1  0  0  0  0  0  0  0  0  0
   32.6135   33.1902   54.4261 H   0  0  0  0  0  0  0  0  0  0  0  0
   33.9035   32.2030   55.8411 C   0  0  0  0  0  0  0  0  0  0  0  0
   33.7075   34.6176   55.5053 N   0  0  0  0  0  0  0  0  0  0  0  0
   32.9578   35.6523   55.0760 C   0  0  0  0  0  0  0  0  0  0  0  0
   32.2076   35.5077   54.1341 O   0  0  0  0  0  0  0  0  0  0  0  0
   33.0564   36.9901   55.7625 C   0  0  0  0  0  0  0  0  0  0  0  0
   32.6844   36.8442   57.1720 N   0  0  0  0  0  0  0  0  0  0  0  0
   32.3006   35.6546   57.8042 N   0  0  0  0  0  0  0  0  0  0  0  0
   32.0459   35.9219   59.0595 C   0  0  0  0  0  0  0  0  0  0  0  0
   31.5997   34.9289   60.1015 C   0  0  0  0  0  0  0  0  0  0  0  0
   31.4959   33.6598   59.5219 F   0  0  0  0  0  0  0  0  0  0  0  0
   32.5350   34.8916   61.1411 F   0  0  0  0  0  0  0  0  0  0  0  0
   30.3537   35.3132   60.6086 F   0  0  0  0  0  0  0  0  0  0  0  0
   32.2589   37.2892   59.2674 C   0  0  0  0  0  0  0  0  0  0  0  0
   32.0561   38.1382   60.7680 Cl  0  0  0  0  0  0  0  0  0  0  0  0
   32.6564   37.8319   58.0926 C   0  0  0  0  0  0  0  0  0  0  0  0
   33.0026   39.2791   57.8541 C   0  0  0  0  0  0  0  0  0  0  0  0
   35.2747   31.8574   52.1900 H   0  0  0  0  0  0  0  0  0  0  0  0
   34.7498   31.1063   53.7160 H   0  0  0  0  0  0  0  0  0  0  0  0
   33.5425   31.7725   52.5905 H   0  0  0  0  0  0  0  0  0  0  0  0
   34.4356   34.0524   52.9820 H   0  0  0  0  0  0  0  0  0  0  0  0
   35.6429   33.3860   54.1075 H   0  0  0  0  0  0  0  0  0  0  0  0
   33.1737   32.2465   56.6496 H   0  0  0  0  0  0  0  0  0  0  0  0
   33.8354   31.2365   55.3419 H   0  0  0  0  0  0  0  0  0  0  0  0
   34.9059   32.3313   56.2493 H   0  0  0  0  0  0  0  0  0  0  0  0
   34.3075   34.7332   56.2586 H   0  0  0  0  0  0  0  0  0  0  0  0
   34.0795   37.3596   55.6932 H   0  0  0  0  0  0  0  0  0  0  0  0
   32.3814   37.6968   55.2798 H   0  0  0  0  0  0  0  0  0  0  0  0
   32.1056   39.8230   57.5577 H   0  0  0  0  0  0  0  0  0  0  0  0
   33.4041   39.7123   58.7702 H   0  0  0  0  0  0  0  0  0  0  0  0
   33.7481   39.3486   57.0620 H   0  0  0  0  0  0  0  0  0  0  0  0
  1  2  1  0  0  0  0
  1 21  1  0  0  0  0
  1 22  1  0  0  0  0
  1 23  1  0  0  0  0
  2  3  1  0  0  0  0
  2 24  1  0  0  0  0
  2 25  1  0  0  0  0
  3  4  1  6  0  0  0
  3  5  1  0  0  0  0
  3  6  1  0  0  0  0
  5 26  1  0  0  0  0
  5 27  1  0  0  0  0
  5 28  1  0  0  0  0
  6  7  1  0  0  0  0
  6 29  1  0  0  0  0
  7  8  2  0  0  0  0
  7  9  1  0  0  0  0
  9 10  1  0  0  0  0
  9 30  1  0  0  0  0
  9 31  1  0  0  0  0
 10 19  1  0  0  0  0
 10 11  1  0  0  0  0
 11 12  2  0  0  0  0
 12 13  1  0  0  0  0
 12 17  1  0  0  0  0
 13 14  1  0  0  0  0
 13 15  1  0  0  0  0
 13 16  1  0  0  0  0
 17 18  1  0  0  0  0
 17 19  2  0  0  0  0
 19 20  1  0  0  0  0
 20 32  1  0  0  0  0
 20 33  1  0  0  0  0
 20 34  1  0  0  0  0
M  END
$$$$
