ZINC000000029329      none
 OpenBabel11202420163D

 27 27  0  0  0  0  0  0  0  0999 V2000
   32.6452   33.3202   54.4340 C   0  0  0  0  0  0  0  0  0  0  0  0
   33.8088   32.7129   55.2200 C   0  0  0  0  0  0  0  0  0  0  0  0
   35.1222   32.9985   54.4891 C   0  0  0  0  0  0  0  0  0  0  0  0
   33.8582   33.3320   56.6183 C   0  0  0  0  0  0  0  0  0  0  0  0
   34.0487   34.7801   56.5046 N   0  0  0  0  0  0  0  0  0  0  0  0
   33.1273   35.6229   57.0118 C   0  0  0  0  0  0  0  0  0  0  0  0
   32.1357   35.1814   57.5590 O   0  0  0  0  0  0  0  0  0  0  0  0
   33.3226   37.0843   56.9026 C   0  0  0  0  0  0  0  0  0  0  0  0
   32.7510   37.9511   57.8420 C   0  0  0  0  0  0  0  0  0  0  0  0
   32.9685   39.3098   57.6979 C   0  0  0  0  0  0  0  0  0  0  0  0
   33.7267   39.7652   56.6340 C   0  0  0  0  0  0  0  0  0  0  0  0
   34.2486   38.9251   55.7608 N   0  0  0  0  0  0  0  0  0  0  0  0
   34.0749   37.6234   55.8585 C   0  0  0  0  0  0  0  0  0  0  0  0
   32.6100   32.8791   53.4380 H   0  0  0  0  0  0  0  0  0  0  0  0
   31.7095   33.1166   54.9548 H   0  0  0  0  0  0  0  0  0  0  0  0
   32.7869   34.3977   54.3494 H   0  0  0  0  0  0  0  0  0  0  0  0
   33.6671   31.6355   55.3046 H   0  0  0  0  0  0  0  0  0  0  0  0
   35.9513   32.5659   55.0490 H   0  0  0  0  0  0  0  0  0  0  0  0
   35.0871   32.5574   53.4929 H   0  0  0  0  0  0  0  0  0  0  0  0
   35.2640   34.0760   54.4045 H   0  0  0  0  0  0  0  0  0  0  0  0
   34.6873   32.8992   57.1782 H   0  0  0  0  0  0  0  0  0  0  0  0
   32.9226   33.1284   57.1389 H   0  0  0  0  0  0  0  0  0  0  0  0
   34.8400   35.1324   56.0680 H   0  0  0  0  0  0  0  0  0  0  0  0
   32.1590   37.5685   58.6603 H   0  0  0  0  0  0  0  0  0  0  0  0
   32.5468   40.0080   58.4057 H   0  0  0  0  0  0  0  0  0  0  0  0
   33.8943   40.8256   56.5165 H   0  0  0  0  0  0  0  0  0  0  0  0
   34.5182   36.9675   55.1238 H   0  0  0  0  0  0  0  0  0  0  0  0
  1  2  1  0  0  0  0
  1 14  1  0  0  0  0
  1 15  1  0  0  0  0
  1 16  1  0  0  0  0
  2  3  1  0  0  0  0
  2  4  1  0  0  0  0
  2 17  1  0  0  0  0
  3 18  1  0  0  0  0
  3 19  1  0  0  0  0
  3 20  1  0  0  0  0
  4  5  1  0  0  0  0
  4 21  1  0  0  0  0
  4 22  1  0  0  0  0
  5  6  1  0  0  0  0
  5 23  1  0  0  0  0
  6  7  2  0  0  0  0
  6  8  1  0  0  0  0
  8 13  2  0  0  0  0
  8  9  1  0  0  0  0
  9 10  2  0  0  0  0
  9 24  1  0  0  0  0
 10 11  1  0  0  0  0
 10 25  1  0  0  0  0
 11 12  2  0  0  0  0
 11 26  1  0  0  0  0
 12 13  1  0  0  0  0
 13 27  1  0  0  0  0
M  END
$$$$
