ZINC000000033670      none
 OpenBabel11202420153D

 38 41  0  0  0  0  0  0  0  0999 V2000
   28.7003   39.9903   66.5178 C   0  0  0  0  0  0  0  0  0  0  0  0
   29.1854   39.8020   65.1868 O   0  0  0  0  0  0  0  0  0  0  0  0
   29.4465   38.5252   64.8001 C   0  0  0  0  0  0  0  0  0  0  0  0
   29.9201   38.2711   63.5209 C   0  0  0  0  0  0  0  0  0  0  0  0
   30.1853   36.9744   63.1277 C   0  0  0  0  0  0  0  0  0  0  0  0
   29.9784   35.9248   64.0124 C   0  0  0  0  0  0  0  0  0  0  0  0
   30.2479   34.6068   63.6131 N   0  0  0  0  0  0  0  0  0  0  0  0
   29.6136   33.4334   64.0571 N   0  0  0  0  0  0  0  0  0  0  0  0
   30.1688   32.4503   63.4355 N   0  0  0  0  0  0  0  0  0  0  0  0
   31.0823   32.8808   62.6422 N   0  0  0  0  0  0  0  0  0  0  0  0
   31.1766   34.1912   62.7159 C   0  0  0  0  0  0  0  0  0  0  0  0
   32.2929   35.2134   61.8139 S   0  0  0  0  0  0  0  0  0  0  0  0
   31.7955   34.8053   60.1220 C   0  0  0  0  0  0  0  0  0  0  0  0
   32.2565   35.8933   59.1867 C   0  0  0  0  0  0  0  0  0  0  0  0
   32.1240   37.1692   59.4045 N   0  0  0  0  0  0  0  0  0  0  0  0
   32.6453   37.8667   58.3625 C   0  0  0  0  0  0  0  0  0  0  0  0
   32.7670   39.2297   58.0800 C   0  0  0  0  0  0  0  0  0  0  0  0
   33.3609   39.6336   56.9181 C   0  0  0  0  0  0  0  0  0  0  0  0
   33.8417   38.7027   56.0080 C   0  0  0  0  0  0  0  0  0  0  0  0
   33.7278   37.3528   56.2633 C   0  0  0  0  0  0  0  0  0  0  0  0
   33.1271   36.9236   57.4391 C   0  0  0  0  0  0  0  0  0  0  0  0
   32.8613   35.6843   57.9860 N   0  0  0  0  0  0  0  0  0  0  0  0
   33.0753   34.8241   57.5921 H   0  0  0  0  0  0  0  0  0  0  0  0
   29.4994   36.1791   65.2904 C   0  0  0  0  0  0  0  0  0  0  0  0
   29.2394   37.4765   65.6846 C   0  0  0  0  0  0  0  0  0  0  0  0
   28.5333   41.0525   66.6966 H   0  0  0  0  0  0  0  0  0  0  0  0
   27.7626   39.4490   66.6427 H   0  0  0  0  0  0  0  0  0  0  0  0
   29.4351   39.6133   67.2290 H   0  0  0  0  0  0  0  0  0  0  0  0
   30.0810   39.0877   62.8327 H   0  0  0  0  0  0  0  0  0  0  0  0
   30.5540   36.7768   62.1320 H   0  0  0  0  0  0  0  0  0  0  0  0
   30.7100   34.7198   60.0731 H   0  0  0  0  0  0  0  0  0  0  0  0
   32.2483   33.8581   59.8288 H   0  0  0  0  0  0  0  0  0  0  0  0
   32.3963   39.9628   58.7812 H   0  0  0  0  0  0  0  0  0  0  0  0
   33.4575   40.6880   56.7055 H   0  0  0  0  0  0  0  0  0  0  0  0
   34.3088   39.0381   55.0938 H   0  0  0  0  0  0  0  0  0  0  0  0
   34.1036   36.6325   55.5518 H   0  0  0  0  0  0  0  0  0  0  0  0
   29.3338   35.3623   65.9774 H   0  0  0  0  0  0  0  0  0  0  0  0
   28.8704   37.6747   66.6800 H   0  0  0  0  0  0  0  0  0  0  0  0
  1  2  1  0  0  0  0
  1 26  1  0  0  0  0
  1 27  1  0  0  0  0
  1 28  1  0  0  0  0
  2  3  1  0  0  0  0
  3 25  2  0  0  0  0
  3  4  1  0  0  0  0
  4  5  2  0  0  0  0
  4 29  1  0  0  0  0
  5  6  1  0  0  0  0
  5 30  1  0  0  0  0
  6  7  1  0  0  0  0
  6 24  2  0  0  0  0
  7 11  1  0  0  0  0
  7  8  1  0  0  0  0
  8  9  2  0  0  0  0
  9 10  1  0  0  0  0
 10 11  2  0  0  0  0
 11 12  1  0  0  0  0
 12 13  1  0  0  0  0
 13 14  1  0  0  0  0
 13 31  1  0  0  0  0
 13 32  1  0  0  0  0
 14 22  1  0  0  0  0
 14 15  2  0  0  0  0
 15 16  1  0  0  0  0
 16 21  2  0  0  0  0
 16 17  1  0  0  0  0
 17 18  2  0  0  0  0
 17 33  1  0  0  0  0
 18 19  1  0  0  0  0
 18 34  1  0  0  0  0
 19 20  2  0  0  0  0
 19 35  1  0  0  0  0
 20 21  1  0  0  0  0
 20 36  1  0  0  0  0
 21 22  1  0  0  0  0
 22 23  1  0  0  0  0
 24 25  1  0  0  0  0
 24 37  1  0  0  0  0
 25 38  1  0  0  0  0
M  END
$$$$
