ZINC000000029903      none
 OpenBabel11202420163D

 40 41  0  0  0  0  0  0  0  0999 V2000
   31.6329   38.0017   61.7239 C   0  0  0  0  0  0  0  0  0  0  0  0
   30.7364   37.2019   60.7766 C   0  0  0  0  0  0  0  0  0  0  0  0
   31.2492   35.7885   60.6735 C   0  0  0  0  0  0  0  0  0  0  0  0
   30.7976   34.8234   61.5524 C   0  0  0  0  0  0  0  0  0  0  0  0
   31.2634   33.5252   61.4553 C   0  0  0  0  0  0  0  0  0  0  0  0
   32.1870   33.1899   60.4819 C   0  0  0  0  0  0  0  0  0  0  0  0
   32.6470   34.1512   59.6038 C   0  0  0  0  0  0  0  0  0  0  0  0
   32.1805   35.4563   59.6985 C   0  0  0  0  0  0  0  0  0  0  0  0
   32.6445   36.4324   58.8110 N   0  0  0  0  0  0  0  0  0  0  0  0
   33.0244   36.0848   57.5654 C   0  0  0  0  0  0  0  0  0  0  0  0
   32.9636   34.9222   57.2132 O   0  0  0  0  0  0  0  0  0  0  0  0
   33.5132   37.1127   56.6308 C   0  0  0  0  0  0  0  0  0  0  0  0
   33.9135   36.7543   55.3395 C   0  0  0  0  0  0  0  0  0  0  0  0
   34.3649   37.7179   54.4679 C   0  0  0  0  0  0  0  0  0  0  0  0
   34.4351   39.0487   54.8694 C   0  0  0  0  0  0  0  0  0  0  0  0
   34.8871   39.9924   54.0050 O   0  0  0  0  0  0  0  0  0  0  0  0
   35.2725   39.5479   52.7028 C   0  0  0  0  0  0  0  0  0  0  0  0
   34.0456   39.4144   56.1493 C   0  0  0  0  0  0  0  0  0  0  0  0
   33.5845   38.4547   57.0340 C   0  0  0  0  0  0  0  0  0  0  0  0
   33.2035   38.8103   58.2865 O   0  0  0  0  0  0  0  0  0  0  0  0
   33.3036   40.1947   58.6265 C   0  0  0  0  0  0  0  0  0  0  0  0
   31.2621   39.0239   61.7987 H   0  0  0  0  0  0  0  0  0  0  0  0
   31.6233   37.5387   62.7107 H   0  0  0  0  0  0  0  0  0  0  0  0
   32.6521   38.0122   61.3375 H   0  0  0  0  0  0  0  0  0  0  0  0
   30.7460   37.6648   59.7900 H   0  0  0  0  0  0  0  0  0  0  0  0
   29.7174   37.1913   61.1633 H   0  0  0  0  0  0  0  0  0  0  0  0
   30.0762   35.0820   62.3136 H   0  0  0  0  0  0  0  0  0  0  0  0
   30.9057   32.7716   62.1411 H   0  0  0  0  0  0  0  0  0  0  0  0
   32.5494   32.1751   60.4088 H   0  0  0  0  0  0  0  0  0  0  0  0
   33.3682   33.8888   58.8441 H   0  0  0  0  0  0  0  0  0  0  0  0
   32.6930   37.3596   59.0918 H   0  0  0  0  0  0  0  0  0  0  0  0
   33.8648   35.7220   55.0256 H   0  0  0  0  0  0  0  0  0  0  0  0
   34.6699   37.4402   53.4697 H   0  0  0  0  0  0  0  0  0  0  0  0
   36.0798   38.8210   52.7912 H   0  0  0  0  0  0  0  0  0  0  0  0
   34.4184   39.0840   52.2096 H   0  0  0  0  0  0  0  0  0  0  0  0
   35.6133   40.3997   52.1142 H   0  0  0  0  0  0  0  0  0  0  0  0
   34.1018   40.4485   56.4557 H   0  0  0  0  0  0  0  0  0  0  0  0
   32.6783   40.7805   57.9526 H   0  0  0  0  0  0  0  0  0  0  0  0
   32.9684   40.3419   59.6531 H   0  0  0  0  0  0  0  0  0  0  0  0
   34.3403   40.5178   58.5329 H   0  0  0  0  0  0  0  0  0  0  0  0
  1  2  1  0  0  0  0
  1 22  1  0  0  0  0
  1 23  1  0  0  0  0
  1 24  1  0  0  0  0
  2  3  1  0  0  0  0
  2 25  1  0  0  0  0
  2 26  1  0  0  0  0
  3  8  2  0  0  0  0
  3  4  1  0  0  0  0
  4  5  2  0  0  0  0
  4 27  1  0  0  0  0
  5  6  1  0  0  0  0
  5 28  1  0  0  0  0
  6  7  2  0  0  0  0
  6 29  1  0  0  0  0
  7  8  1  0  0  0  0
  7 30  1  0  0  0  0
  8  9  1  0  0  0  0
  9 10  1  0  0  0  0
  9 31  1  0  0  0  0
 10 11  2  0  0  0  0
 10 12  1  0  0  0  0
 12 19  2  0  0  0  0
 12 13  1  0  0  0  0
 13 14  2  0  0  0  0
 13 32  1  0  0  0  0
 14 15  1  0  0  0  0
 14 33  1  0  0  0  0
 15 16  1  0  0  0  0
 15 18  2  0  0  0  0
 16 17  1  0  0  0  0
 17 34  1  0  0  0  0
 17 35  1  0  0  0  0
 17 36  1  0  0  0  0
 18 19  1  0  0  0  0
 18 37  1  0  0  0  0
 19 20  1  0  0  0  0
 20 21  1  0  0  0  0
 21 38  1  0  0  0  0
 21 39  1  0  0  0  0
 21 40  1  0  0  0  0
M  END
$$$$
