ZINC000000054843      none
 OpenBabel11202420153D

 24 25  0  0  0  0  0  0  0  0999 V2000
   34.3750   35.5906   54.2419 C   0  0  0  0  0  0  0  0  0  0  0  0
   34.0538   36.6306   55.2842 C   0  0  0  0  0  0  0  0  0  0  0  0
   34.3325   37.9984   55.1892 C   0  0  0  0  0  0  0  0  0  0  0  0
   33.8930   38.5935   56.3222 C   0  0  0  0  0  0  0  0  0  0  0  0
   33.9872   40.0614   56.6504 C   0  0  0  0  0  0  0  0  0  0  0  0
   33.3523   37.6288   57.1102 N   0  0  0  0  0  0  0  0  0  0  0  0
   32.7819   37.8199   58.3747 C   0  0  0  0  0  0  0  0  0  0  0  0
   32.2585   36.7190   59.0789 C   0  0  0  0  0  0  0  0  0  0  0  0
   31.7051   36.9050   60.3071 C   0  0  0  0  0  0  0  0  0  0  0  0
   31.6650   38.2028   60.8562 C   0  0  0  0  0  0  0  0  0  0  0  0
   31.1726   38.3894   61.9576 O   0  0  0  0  0  0  0  0  0  0  0  0
   32.1747   39.2364   60.1567 N   0  0  0  0  0  0  0  0  0  0  0  0
   32.1500   40.1316   60.5295 H   0  0  0  0  0  0  0  0  0  0  0  0
   32.7397   39.0222   58.8942 N   0  0  0  0  0  0  0  0  0  0  0  0
   33.4723   36.4072   56.4348 N   0  0  0  0  0  0  0  0  0  0  0  0
   35.3688   35.1837   54.4288 H   0  0  0  0  0  0  0  0  0  0  0  0
   33.6388   34.7882   54.2901 H   0  0  0  0  0  0  0  0  0  0  0  0
   34.3497   36.0478   53.2527 H   0  0  0  0  0  0  0  0  0  0  0  0
   34.8133   38.4923   54.3579 H   0  0  0  0  0  0  0  0  0  0  0  0
   34.9265   40.2586   57.1670 H   0  0  0  0  0  0  0  0  0  0  0  0
   33.9499   40.6427   55.7292 H   0  0  0  0  0  0  0  0  0  0  0  0
   33.1531   40.3442   57.2926 H   0  0  0  0  0  0  0  0  0  0  0  0
   32.2966   35.7304   58.6455 H   0  0  0  0  0  0  0  0  0  0  0  0
   31.3010   36.0674   60.8562 H   0  0  0  0  0  0  0  0  0  0  0  0
  1  2  1  0  0  0  0
  1 16  1  0  0  0  0
  1 17  1  0  0  0  0
  1 18  1  0  0  0  0
  2 15  2  0  0  0  0
  2  3  1  0  0  0  0
  3  4  2  0  0  0  0
  3 19  1  0  0  0  0
  4  5  1  0  0  0  0
  4  6  1  0  0  0  0
  5 20  1  0  0  0  0
  5 21  1  0  0  0  0
  5 22  1  0  0  0  0
  6  7  1  0  0  0  0
  6 15  1  0  0  0  0
  7 14  2  0  0  0  0
  7  8  1  0  0  0  0
  8  9  2  0  0  0  0
  8 23  1  0  0  0  0
  9 10  1  0  0  0  0
  9 24  1  0  0  0  0
 10 11  2  0  0  0  0
 10 12  1  0  0  0  0
 12 13  1  0  0  0  0
 12 14  1  0  0  0  0
M  END
$$$$
