ZINC000000041314      none
 OpenBabel11202420153D

 33 35  0  0  0  0  0  0  0  0999 V2000
   32.4473   33.0667   61.1475 C   0  0  0  0  0  0  0  0  0  0  0  0
   32.5494   34.2985   60.4304 O   0  0  0  0  0  0  0  0  0  0  0  0
   31.9994   35.3988   61.0114 C   0  0  0  0  0  0  0  0  0  0  0  0
   31.3807   35.2953   62.2463 C   0  0  0  0  0  0  0  0  0  0  0  0
   30.8222   36.4143   62.8364 C   0  0  0  0  0  0  0  0  0  0  0  0
   30.8792   37.6395   62.1964 C   0  0  0  0  0  0  0  0  0  0  0  0
   30.1766   39.0404   62.9430 Cl  0  0  0  0  0  0  0  0  0  0  0  0
   31.4947   37.7505   60.9625 C   0  0  0  0  0  0  0  0  0  0  0  0
   32.0621   36.6329   60.3683 C   0  0  0  0  0  0  0  0  0  0  0  0
   32.6917   36.7438   59.1231 N   0  0  0  0  0  0  0  0  0  0  0  0
   32.3958   37.8836   58.2517 C   0  0  0  0  0  0  0  0  0  0  0  0
   33.1756   37.7695   57.0167 N   0  0  0  0  0  0  0  0  0  0  0  0
   33.8895   38.7938   56.3771 N   0  0  0  0  0  0  0  0  0  0  0  0
   34.4543   38.3261   55.3202 N   0  0  0  0  0  0  0  0  0  0  0  0
   34.1662   37.0172   55.1757 C   0  0  0  0  0  0  0  0  0  0  0  0
   34.5172   36.0588   54.2156 C   0  0  0  0  0  0  0  0  0  0  0  0
   34.0622   34.7787   54.3377 C   0  0  0  0  0  0  0  0  0  0  0  0
   33.2527   34.4114   55.4050 C   0  0  0  0  0  0  0  0  0  0  0  0
   32.8962   35.3273   56.3547 C   0  0  0  0  0  0  0  0  0  0  0  0
   33.3467   36.6392   56.2534 C   0  0  0  0  0  0  0  0  0  0  0  0
   32.9251   32.2721   60.5744 H   0  0  0  0  0  0  0  0  0  0  0  0
   32.9426   33.1663   62.1133 H   0  0  0  0  0  0  0  0  0  0  0  0
   31.3962   32.8220   61.3016 H   0  0  0  0  0  0  0  0  0  0  0  0
   31.3348   34.3404   62.7487 H   0  0  0  0  0  0  0  0  0  0  0  0
   30.3405   36.3316   63.7996 H   0  0  0  0  0  0  0  0  0  0  0  0
   31.5380   38.7079   60.4646 H   0  0  0  0  0  0  0  0  0  0  0  0
   33.3240   36.0659   58.8372 H   0  0  0  0  0  0  0  0  0  0  0  0
   31.3327   37.8905   58.0108 H   0  0  0  0  0  0  0  0  0  0  0  0
   32.6584   38.8098   58.7630 H   0  0  0  0  0  0  0  0  0  0  0  0
   35.1460   36.3329   53.3814 H   0  0  0  0  0  0  0  0  0  0  0  0
   34.3347   34.0422   53.5962 H   0  0  0  0  0  0  0  0  0  0  0  0
   32.9022   33.3930   55.4853 H   0  0  0  0  0  0  0  0  0  0  0  0
   32.2661   35.0332   57.1811 H   0  0  0  0  0  0  0  0  0  0  0  0
  1  2  1  0  0  0  0
  1 21  1  0  0  0  0
  1 22  1  0  0  0  0
  1 23  1  0  0  0  0
  2  3  1  0  0  0  0
  3  9  2  0  0  0  0
  3  4  1  0  0  0  0
  4  5  2  0  0  0  0
  4 24  1  0  0  0  0
  5  6  1  0  0  0  0
  5 25  1  0  0  0  0
  6  7  1  0  0  0  0
  6  8  2  0  0  0  0
  8  9  1  0  0  0  0
  8 26  1  0  0  0  0
  9 10  1  0  0  0  0
 10 11  1  0  0  0  0
 10 27  1  0  0  0  0
 11 12  1  0  0  0  0
 11 28  1  0  0  0  0
 11 29  1  0  0  0  0
 12 20  1  0  0  0  0
 12 13  1  0  0  0  0
 13 14  2  0  0  0  0
 14 15  1  0  0  0  0
 15 20  2  0  0  0  0
 15 16  1  0  0  0  0
 16 17  2  0  0  0  0
 16 30  1  0  0  0  0
 17 18  1  0  0  0  0
 17 31  1  0  0  0  0
 18 19  2  0  0  0  0
 18 32  1  0  0  0  0
 19 20  1  0  0  0  0
 19 33  1  0  0  0  0
M  END
$$$$
