ZINC000000038268      none
 OpenBabel11202420153D

 42 43  0  0  0  0  0  0  0  0999 V2000
   27.7166   33.6200   64.9093 C   0  0  0  0  0  0  0  0  0  0  0  0
   28.9902   33.1042   65.5824 C   0  0  0  0  0  0  0  0  0  0  0  0
   30.1428   33.4602   64.7743 O   0  0  0  0  0  0  0  0  0  0  0  0
   30.7295   34.6438   65.0340 C   0  0  0  0  0  0  0  0  0  0  0  0
   30.7016   35.1017   66.1593 O   0  0  0  0  0  0  0  0  0  0  0  0
   31.3477   35.3209   64.0462 N   0  0  0  0  0  0  0  0  0  0  0  0
   31.9943   36.6156   64.3083 C   0  0  0  0  0  0  0  0  0  0  0  0
   31.4860   37.6308   63.2792 C   0  0  0  0  0  0  0  0  0  0  0  0
   31.6913   37.0964   61.9262 N   0  0  0  0  0  0  0  0  0  0  0  0
   31.3767   38.1071   60.9077 C   0  0  0  0  0  0  0  0  0  0  0  0
   32.0400   37.7331   59.6072 C   0  0  0  0  0  0  0  0  0  0  0  0
   31.9724   36.4680   59.1701 O   0  0  0  0  0  0  0  0  0  0  0  0
   32.5423   36.0815   58.0232 C   0  0  0  0  0  0  0  0  0  0  0  0
   32.4301   34.6434   57.5870 C   0  0  0  0  0  0  0  0  0  0  0  0
   33.7047   34.1818   57.1352 O   0  0  0  0  0  0  0  0  0  0  0  0
   33.2152   36.9587   57.2512 C   0  0  0  0  0  0  0  0  0  0  0  0
   33.3146   38.3087   57.6709 C   0  0  0  0  0  0  0  0  0  0  0  0
   33.9163   39.1325   56.9988 O   0  0  0  0  0  0  0  0  0  0  0  0
   32.6903   38.6787   58.8942 C   0  0  0  0  0  0  0  0  0  0  0  0
   32.7509   39.9627   59.3413 O   0  0  0  0  0  0  0  0  0  0  0  0
   30.9084   35.8720   61.7124 C   0  0  0  0  0  0  0  0  0  0  0  0
   31.3933   34.7847   62.6773 C   0  0  0  0  0  0  0  0  0  0  0  0
   27.7709   34.7042   64.8114 H   0  0  0  0  0  0  0  0  0  0  0  0
   27.6202   33.1702   63.9211 H   0  0  0  0  0  0  0  0  0  0  0  0
   26.8513   33.3528   65.5159 H   0  0  0  0  0  0  0  0  0  0  0  0
   28.9359   32.0200   65.6803 H   0  0  0  0  0  0  0  0  0  0  0  0
   29.0865   33.5540   66.5705 H   0  0  0  0  0  0  0  0  0  0  0  0
   33.0754   36.5104   64.2159 H   0  0  0  0  0  0  0  0  0  0  0  0
   31.7443   36.9563   65.3130 H   0  0  0  0  0  0  0  0  0  0  0  0
   32.0356   38.5658   63.3882 H   0  0  0  0  0  0  0  0  0  0  0  0
   30.4235   37.8124   63.4410 H   0  0  0  0  0  0  0  0  0  0  0  0
   31.7430   39.0799   61.2357 H   0  0  0  0  0  0  0  0  0  0  0  0
   30.2972   38.1548   60.7645 H   0  0  0  0  0  0  0  0  0  0  0  0
   32.0999   34.0334   58.4277 H   0  0  0  0  0  0  0  0  0  0  0  0
   31.7068   34.5653   56.7753 H   0  0  0  0  0  0  0  0  0  0  0  0
   34.0608   34.6799   56.3868 H   0  0  0  0  0  0  0  0  0  0  0  0
   33.6719   36.6372   56.3269 H   0  0  0  0  0  0  0  0  0  0  0  0
   33.5150   40.1474   59.9044 H   0  0  0  0  0  0  0  0  0  0  0  0
   29.8541   36.0777   61.8962 H   0  0  0  0  0  0  0  0  0  0  0  0
   31.0394   35.5314   60.6853 H   0  0  0  0  0  0  0  0  0  0  0  0
   32.4164   34.5035   62.4281 H   0  0  0  0  0  0  0  0  0  0  0  0
   30.7455   33.9111   62.6045 H   0  0  0  0  0  0  0  0  0  0  0  0
  1  2  1  0  0  0  0
  1 23  1  0  0  0  0
  1 24  1  0  0  0  0
  1 25  1  0  0  0  0
  2  3  1  0  0  0  0
  2 26  1  0  0  0  0
  2 27  1  0  0  0  0
  3  4  1  0  0  0  0
  4  5  2  0  0  0  0
  4  6  1  0  0  0  0
  6 22  1  0  0  0  0
  6  7  1  0  0  0  0
  7  8  1  0  0  0  0
  7 28  1  0  0  0  0
  7 29  1  0  0  0  0
  8  9  1  0  0  0  0
  8 30  1  0  0  0  0
  8 31  1  0  0  0  0
  9 10  1  0  0  0  0
  9 21  1  0  0  0  0
 10 11  1  0  0  0  0
 10 32  1  0  0  0  0
 10 33  1  0  0  0  0
 11 19  2  0  0  0  0
 11 12  1  0  0  0  0
 12 13  1  0  0  0  0
 13 14  1  0  0  0  0
 13 16  2  0  0  0  0
 14 15  1  0  0  0  0
 14 34  1  0  0  0  0
 14 35  1  0  0  0  0
 15 36  1  0  0  0  0
 16 17  1  0  0  0  0
 16 37  1  0  0  0  0
 17 18  2  0  0  0  0
 17 19  1  0  0  0  0
 19 20  1  0  0  0  0
 20 38  1  0  0  0  0
 21 22  1  0  0  0  0
 21 39  1  0  0  0  0
 21 40  1  0  0  0  0
 22 41  1  0  0  0  0
 22 42  1  0  0  0  0
M  END
$$$$
