ZINC000000050541      none
 OpenBabel11202420153D

 26 27  0  0  0  0  0  0  0  0999 V2000
   34.2246   31.7944   53.4604 C   0  0  0  0  0  0  0  0  0  0  0  0
   33.6578   32.3587   54.6724 O   0  0  0  0  0  0  0  0  0  0  0  0
   32.8829   33.4460   54.5338 C   0  0  0  0  0  0  0  0  0  0  0  0
   32.6850   33.9109   53.4362 O   0  0  0  0  0  0  0  0  0  0  0  0
   32.2602   34.0870   55.7472 C   0  0  0  0  0  0  0  0  0  0  0  0
   33.3291   33.8242   57.1840 S   0  0  0  0  0  0  0  0  0  0  0  0
   32.7407   35.1049   58.2414 C   0  0  0  0  0  0  0  0  0  0  0  0
   32.2368   34.8208   59.4005 N   0  0  0  0  0  0  0  0  0  0  0  0
   31.8004   36.2803   60.0900 S   0  0  0  0  0  0  0  0  0  0  0  0
   30.3816   36.3147   60.1605 O   0  0  0  0  0  0  0  0  0  0  0  0
   32.6602   36.5055   61.1987 O   0  0  0  0  0  0  0  0  0  0  0  0
   32.2986   37.3794   58.7934 C   0  0  0  0  0  0  0  0  0  0  0  0
   32.2670   38.7328   58.6155 C   0  0  0  0  0  0  0  0  0  0  0  0
   32.7568   39.2822   57.4394 C   0  0  0  0  0  0  0  0  0  0  0  0
   33.2715   38.4504   56.4609 C   0  0  0  0  0  0  0  0  0  0  0  0
   33.3051   37.0855   56.6378 C   0  0  0  0  0  0  0  0  0  0  0  0
   32.8141   36.5126   57.8210 C   0  0  0  0  0  0  0  0  0  0  0  0
   34.8278   30.9224   53.7133 H   0  0  0  0  0  0  0  0  0  0  0  0
   33.4205   31.4972   52.7874 H   0  0  0  0  0  0  0  0  0  0  0  0
   34.8512   32.5401   52.9710 H   0  0  0  0  0  0  0  0  0  0  0  0
   31.2840   33.6395   55.9339 H   0  0  0  0  0  0  0  0  0  0  0  0
   32.1422   35.1565   55.5729 H   0  0  0  0  0  0  0  0  0  0  0  0
   31.8668   39.3726   59.3881 H   0  0  0  0  0  0  0  0  0  0  0  0
   32.7361   40.3514   57.2886 H   0  0  0  0  0  0  0  0  0  0  0  0
   33.6529   38.8779   55.5454 H   0  0  0  0  0  0  0  0  0  0  0  0
   33.7116   36.4528   55.8627 H   0  0  0  0  0  0  0  0  0  0  0  0
  1  2  1  0  0  0  0
  1 18  1  0  0  0  0
  1 19  1  0  0  0  0
  1 20  1  0  0  0  0
  2  3  1  0  0  0  0
  3  4  2  0  0  0  0
  3  5  1  0  0  0  0
  5  6  1  0  0  0  0
  5 21  1  0  0  0  0
  5 22  1  0  0  0  0
  6  7  1  0  0  0  0
  7 17  1  0  0  0  0
  7  8  2  0  0  0  0
  8  9  1  0  0  0  0
  9 10  2  0  0  0  0
  9 11  2  0  0  0  0
  9 12  1  0  0  0  0
 12 17  2  0  0  0  0
 12 13  1  0  0  0  0
 13 14  2  0  0  0  0
 13 23  1  0  0  0  0
 14 15  1  0  0  0  0
 14 24  1  0  0  0  0
 15 16  2  0  0  0  0
 15 25  1  0  0  0  0
 16 17  1  0  0  0  0
 16 26  1  0  0  0  0
M  END
$$$$
