ZINC000000043667      none
 OpenBabel11202420153D

 31 33  0  0  0  0  0  0  0  0999 V2000
   29.3931   33.6124   64.5570 C   0  0  0  0  0  0  0  0  0  0  0  0
   30.4924   34.4823   64.1318 N   0  0  0  0  0  0  0  0  0  0  0  0
   31.3629   34.2197   63.1344 C   0  0  0  0  0  0  0  0  0  0  0  0
   32.2411   35.2501   63.0276 C   0  0  0  0  0  0  0  0  0  0  0  0
   31.9074   36.2011   63.9908 C   0  0  0  0  0  0  0  0  0  0  0  0
   30.8096   35.7061   64.6843 C   0  0  0  0  0  0  0  0  0  0  0  0
   30.1422   36.3379   65.7479 C   0  0  0  0  0  0  0  0  0  0  0  0
   29.5590   37.5843   65.5595 C   0  0  0  0  0  0  0  0  0  0  0  0
   28.9601   38.4944   66.5541 C   0  0  0  0  0  0  0  0  0  0  0  0
   28.8601   38.3238   67.7558 O   0  0  0  0  0  0  0  0  0  0  0  0
   28.5441   39.5539   65.8345 O   0  0  0  0  0  0  0  0  0  0  0  0
   28.7732   39.4573   64.6574 N   0  0  0  0  0  0  0  0  0  0  0  0
   29.3754   38.3547   64.3047 C   0  0  0  0  0  0  0  0  0  0  0  0
   29.7843   37.9533   62.9372 C   0  0  0  0  0  0  0  0  0  0  0  0
   30.6854   38.7369   62.2179 C   0  0  0  0  0  0  0  0  0  0  0  0
   31.0620   38.3586   60.9455 C   0  0  0  0  0  0  0  0  0  0  0  0
   30.5429   37.2072   60.3811 C   0  0  0  0  0  0  0  0  0  0  0  0
   29.6527   36.4225   61.0922 C   0  0  0  0  0  0  0  0  0  0  0  0
   29.2689   36.7909   62.3656 C   0  0  0  0  0  0  0  0  0  0  0  0
   28.5119   33.8165   63.9487 H   0  0  0  0  0  0  0  0  0  0  0  0
   29.6862   32.5697   64.4335 H   0  0  0  0  0  0  0  0  0  0  0  0
   29.1633   33.8034   65.6053 H   0  0  0  0  0  0  0  0  0  0  0  0
   31.3610   33.3321   62.5192 H   0  0  0  0  0  0  0  0  0  0  0  0
   33.0522   35.3223   62.3181 H   0  0  0  0  0  0  0  0  0  0  0  0
   32.4079   37.1420   64.1660 H   0  0  0  0  0  0  0  0  0  0  0  0
   30.0830   35.8541   66.7117 H   0  0  0  0  0  0  0  0  0  0  0  0
   31.0882   39.6382   62.6560 H   0  0  0  0  0  0  0  0  0  0  0  0
   31.7600   38.9650   60.3873 H   0  0  0  0  0  0  0  0  0  0  0  0
   30.8368   36.9175   59.3830 H   0  0  0  0  0  0  0  0  0  0  0  0
   29.2538   35.5225   60.6483 H   0  0  0  0  0  0  0  0  0  0  0  0
   28.5708   36.1798   62.9183 H   0  0  0  0  0  0  0  0  0  0  0  0
  1  2  1  0  0  0  0
  1 20  1  0  0  0  0
  1 21  1  0  0  0  0
  1 22  1  0  0  0  0
  2  6  1  0  0  0  0
  2  3  1  0  0  0  0
  3  4  2  0  0  0  0
  3 23  1  0  0  0  0
  4  5  1  0  0  0  0
  4 24  1  0  0  0  0
  5  6  2  0  0  0  0
  5 25  1  0  0  0  0
  6  7  1  0  0  0  0
  7  8  2  0  0  0  0
  7 26  1  0  0  0  0
  8 13  1  0  0  0  0
  8  9  1  0  0  0  0
  9 10  2  0  0  0  0
  9 11  1  0  0  0  0
 11 12  1  0  0  0  0
 12 13  2  0  0  0  0
 13 14  1  0  0  0  0
 14 19  2  0  0  0  0
 14 15  1  0  0  0  0
 15 16  2  0  0  0  0
 15 27  1  0  0  0  0
 16 17  1  0  0  0  0
 16 28  1  0  0  0  0
 17 18  2  0  0  0  0
 17 29  1  0  0  0  0
 18 19  1  0  0  0  0
 18 30  1  0  0  0  0
 19 31  1  0  0  0  0
M  END
$$$$
