ZINC000000056986      none
 OpenBabel11202420153D

 25 26  0  0  0  0  0  0  0  0999 V2000
   34.8745   37.9253   53.0260 O   0  0  0  0  0  0  0  0  0  0  0  0
   34.7639   38.8403   53.8224 N   0  0  0  0  0  0  0  0  0  0  0  0
   35.1188   39.9635   53.5128 O   0  0  0  0  0  0  0  0  0  0  0  0
   34.1982   38.5869   55.1667 C   0  0  0  0  0  0  0  0  0  0  0  0
   34.0733   39.6285   56.0689 C   0  0  0  0  0  0  0  0  0  0  0  0
   33.5465   39.3994   57.3231 C   0  0  0  0  0  0  0  0  0  0  0  0
   33.1389   38.1131   57.6811 C   0  0  0  0  0  0  0  0  0  0  0  0
   32.5736   37.8603   59.0230 C   0  0  0  0  0  0  0  0  0  0  0  0
   32.3959   38.7873   60.0015 C   0  0  0  0  0  0  0  0  0  0  0  0
   31.8336   38.1119   61.1032 C   0  0  0  0  0  0  0  0  0  0  0  0
   31.6972   36.8198   60.7464 C   0  0  0  0  0  0  0  0  0  0  0  0
   31.1404   35.7222   61.6160 C   0  0  0  0  0  0  0  0  0  0  0  0
   31.1539   34.4892   60.8938 O   0  0  0  0  0  0  0  0  0  0  0  0
   32.1454   36.6714   59.4890 O   0  0  0  0  0  0  0  0  0  0  0  0
   33.2730   37.0657   56.7682 C   0  0  0  0  0  0  0  0  0  0  0  0
   33.7961   37.3097   55.5152 C   0  0  0  0  0  0  0  0  0  0  0  0
   34.3894   40.6231   55.7907 H   0  0  0  0  0  0  0  0  0  0  0  0
   33.4492   40.2133   58.0263 H   0  0  0  0  0  0  0  0  0  0  0  0
   32.6391   39.8380   59.9455 H   0  0  0  0  0  0  0  0  0  0  0  0
   31.5635   38.5475   62.0538 H   0  0  0  0  0  0  0  0  0  0  0  0
   31.7516   35.6244   62.5135 H   0  0  0  0  0  0  0  0  0  0  0  0
   30.1166   35.9667   61.8988 H   0  0  0  0  0  0  0  0  0  0  0  0
   32.0350   34.2093   60.6101 H   0  0  0  0  0  0  0  0  0  0  0  0
   32.9636   36.0674   57.0405 H   0  0  0  0  0  0  0  0  0  0  0  0
   33.8965   36.5011   54.8065 H   0  0  0  0  0  0  0  0  0  0  0  0
  1  2  2  0  0  0  0
  2  3  2  0  0  0  0
  2  4  1  0  0  0  0
  4 16  2  0  0  0  0
  4  5  1  0  0  0  0
  5  6  2  0  0  0  0
  5 17  1  0  0  0  0
  6  7  1  0  0  0  0
  6 18  1  0  0  0  0
  7  8  1  0  0  0  0
  7 15  2  0  0  0  0
  8 14  1  0  0  0  0
  8  9  2  0  0  0  0
  9 10  1  0  0  0  0
  9 19  1  0  0  0  0
 10 11  2  0  0  0  0
 10 20  1  0  0  0  0
 11 12  1  0  0  0  0
 11 14  1  0  0  0  0
 12 13  1  0  0  0  0
 12 21  1  0  0  0  0
 12 22  1  0  0  0  0
 13 23  1  0  0  0  0
 15 16  1  0  0  0  0
 15 24  1  0  0  0  0
 16 25  1  0  0  0  0
M  END
$$$$
