ZINC000000043035      none
 OpenBabel11202420153D

 35 39  0  0  0  0  0  0  0  0999 V2000
   34.7308   40.6140   55.4122 O   0  0  0  0  0  0  0  0  0  0  0  0
   34.3955   39.4442   55.4475 C   0  0  0  0  0  0  0  0  0  0  0  0
   34.5354   38.5789   54.2720 C   0  0  0  0  0  0  0  0  0  0  0  0
   35.0564   39.0522   53.0670 C   0  0  0  0  0  0  0  0  0  0  0  0
   35.1656   38.2041   52.0010 C   0  0  0  0  0  0  0  0  0  0  0  0
   34.7643   36.8770   52.1035 C   0  0  0  0  0  0  0  0  0  0  0  0
   34.2514   36.3856   53.2693 C   0  0  0  0  0  0  0  0  0  0  0  0
   34.1259   37.2281   54.3807 C   0  0  0  0  0  0  0  0  0  0  0  0
   33.6258   36.7851   55.5468 N   0  0  0  0  0  0  0  0  0  0  0  0
   33.5074   37.5768   56.5926 C   0  0  0  0  0  0  0  0  0  0  0  0
   32.9506   37.0369   57.8506 C   0  0  0  0  0  0  0  0  0  0  0  0
   32.4802   35.6949   58.1529 C   0  0  0  0  0  0  0  0  0  0  0  0
   32.0345   35.5490   59.4048 C   0  0  0  0  0  0  0  0  0  0  0  0
   32.1604   37.0517   60.3034 S   0  0  0  0  0  0  0  0  0  0  0  0
   32.8428   37.9047   58.9273 C   0  0  0  0  0  0  0  0  0  0  0  0
   33.2419   39.1889   58.7958 N   0  0  0  0  0  0  0  0  0  0  0  0
   33.7305   39.6620   57.6930 C   0  0  0  0  0  0  0  0  0  0  0  0
   33.8805   38.8972   56.5724 N   0  0  0  0  0  0  0  0  0  0  0  0
   31.4907   34.2507   59.9748 C   0  0  0  0  0  0  0  0  0  0  0  0
   31.1531   33.3075   58.8175 C   0  0  0  0  0  0  0  0  0  0  0  0
   32.3547   33.2315   57.8708 C   0  0  0  0  0  0  0  0  0  0  0  0
   32.4966   34.5639   57.1329 C   0  0  0  0  0  0  0  0  0  0  0  0
   35.3707   40.0816   52.9773 H   0  0  0  0  0  0  0  0  0  0  0  0
   35.5728   38.5679   51.0692 H   0  0  0  0  0  0  0  0  0  0  0  0
   34.8600   36.2249   51.2480 H   0  0  0  0  0  0  0  0  0  0  0  0
   33.9444   35.3521   53.3343 H   0  0  0  0  0  0  0  0  0  0  0  0
   34.0295   40.6993   57.6590 H   0  0  0  0  0  0  0  0  0  0  0  0
   32.2428   33.7893   60.6147 H   0  0  0  0  0  0  0  0  0  0  0  0
   30.5904   34.4548   60.5543 H   0  0  0  0  0  0  0  0  0  0  0  0
   30.9334   32.3141   59.2087 H   0  0  0  0  0  0  0  0  0  0  0  0
   30.2853   33.6875   58.2784 H   0  0  0  0  0  0  0  0  0  0  0  0
   33.2597   33.0351   58.4458 H   0  0  0  0  0  0  0  0  0  0  0  0
   32.2001   32.4290   57.1494 H   0  0  0  0  0  0  0  0  0  0  0  0
   33.4389   34.5796   56.5853 H   0  0  0  0  0  0  0  0  0  0  0  0
   31.6672   34.6856   56.4362 H   0  0  0  0  0  0  0  0  0  0  0  0
  1  2  2  0  0  0  0
  2 18  1  0  0  0  0
  2  3  1  0  0  0  0
  3  8  2  0  0  0  0
  3  4  1  0  0  0  0
  4  5  2  0  0  0  0
  4 23  1  0  0  0  0
  5  6  1  0  0  0  0
  5 24  1  0  0  0  0
  6  7  2  0  0  0  0
  6 25  1  0  0  0  0
  7  8  1  0  0  0  0
  7 26  1  0  0  0  0
  8  9  1  0  0  0  0
  9 10  2  0  0  0  0
 10 18  1  0  0  0  0
 10 11  1  0  0  0  0
 11 15  2  0  0  0  0
 11 12  1  0  0  0  0
 12 22  1  0  0  0  0
 12 13  2  0  0  0  0
 13 14  1  0  0  0  0
 13 19  1  0  0  0  0
 14 15  1  0  0  0  0
 15 16  1  0  0  0  0
 16 17  2  0  0  0  0
 17 18  1  0  0  0  0
 17 27  1  0  0  0  0
 19 20  1  0  0  0  0
 19 28  1  0  0  0  0
 19 29  1  0  0  0  0
 20 21  1  0  0  0  0
 20 30  1  0  0  0  0
 20 31  1  0  0  0  0
 21 22  1  0  0  0  0
 21 32  1  0  0  0  0
 21 33  1  0  0  0  0
 22 34  1  0  0  0  0
 22 35  1  0  0  0  0
M  END
$$$$
