ZINC000000038669      none
 OpenBabel11202420153D

 33 34  0  0  0  0  0  0  0  0999 V2000
   32.3394   36.8232   65.6932 C   0  0  0  0  0  0  0  0  0  0  0  0
   31.5311   37.4651   64.5952 C   0  0  0  0  0  0  0  0  0  0  0  0
   30.3697   38.1511   64.9038 C   0  0  0  0  0  0  0  0  0  0  0  0
   29.6222   38.7442   63.9020 C   0  0  0  0  0  0  0  0  0  0  0  0
   30.0335   38.6589   62.5878 C   0  0  0  0  0  0  0  0  0  0  0  0
   31.2009   37.9634   62.2690 C   0  0  0  0  0  0  0  0  0  0  0  0
   31.6445   37.8631   60.8625 C   0  0  0  0  0  0  0  0  0  0  0  0
   31.2726   36.9338   60.1726 O   0  0  0  0  0  0  0  0  0  0  0  0
   32.4614   38.8019   60.3450 N   0  0  0  0  0  0  0  0  0  0  0  0
   32.8817   38.7069   59.0126 C   0  0  0  0  0  0  0  0  0  0  0  0
   33.1551   39.8587   58.2866 C   0  0  0  0  0  0  0  0  0  0  0  0
   33.5750   39.7640   56.9746 C   0  0  0  0  0  0  0  0  0  0  0  0
   33.7186   38.5190   56.3800 C   0  0  0  0  0  0  0  0  0  0  0  0
   34.1329   38.4265   55.0882 O   0  0  0  0  0  0  0  0  0  0  0  0
   34.2588   37.1129   54.5398 C   0  0  0  0  0  0  0  0  0  0  0  0
   33.0180   36.4683   54.5836 F   0  0  0  0  0  0  0  0  0  0  0  0
   34.6918   37.2014   53.2124 F   0  0  0  0  0  0  0  0  0  0  0  0
   35.1901   36.3832   55.2864 F   0  0  0  0  0  0  0  0  0  0  0  0
   33.4401   37.3680   57.1028 C   0  0  0  0  0  0  0  0  0  0  0  0
   33.0200   37.4611   58.4149 C   0  0  0  0  0  0  0  0  0  0  0  0
   31.9507   37.3678   63.2849 C   0  0  0  0  0  0  0  0  0  0  0  0
   33.0750   37.5355   66.0667 H   0  0  0  0  0  0  0  0  0  0  0  0
   31.6766   36.5257   66.5058 H   0  0  0  0  0  0  0  0  0  0  0  0
   32.8511   35.9442   65.3013 H   0  0  0  0  0  0  0  0  0  0  0  0
   30.0455   38.2244   65.9314 H   0  0  0  0  0  0  0  0  0  0  0  0
   28.7169   39.2786   64.1496 H   0  0  0  0  0  0  0  0  0  0  0  0
   29.4515   39.1257   61.8070 H   0  0  0  0  0  0  0  0  0  0  0  0
   32.7583   39.5434   60.8955 H   0  0  0  0  0  0  0  0  0  0  0  0
   33.0437   40.8280   58.7495 H   0  0  0  0  0  0  0  0  0  0  0  0
   33.7920   40.6596   56.4113 H   0  0  0  0  0  0  0  0  0  0  0  0
   33.5520   36.3991   56.6392 H   0  0  0  0  0  0  0  0  0  0  0  0
   32.8037   36.5650   58.9776 H   0  0  0  0  0  0  0  0  0  0  0  0
   32.8571   36.8317   63.0454 H   0  0  0  0  0  0  0  0  0  0  0  0
  1  2  1  0  0  0  0
  1 22  1  0  0  0  0
  1 23  1  0  0  0  0
  1 24  1  0  0  0  0
  2 21  2  0  0  0  0
  2  3  1  0  0  0  0
  3  4  2  0  0  0  0
  3 25  1  0  0  0  0
  4  5  1  0  0  0  0
  4 26  1  0  0  0  0
  5  6  2  0  0  0  0
  5 27  1  0  0  0  0
  6  7  1  0  0  0  0
  6 21  1  0  0  0  0
  7  8  2  0  0  0  0
  7  9  1  0  0  0  0
  9 10  1  0  0  0  0
  9 28  1  0  0  0  0
 10 20  2  0  0  0  0
 10 11  1  0  0  0  0
 11 12  2  0  0  0  0
 11 29  1  0  0  0  0
 12 13  1  0  0  0  0
 12 30  1  0  0  0  0
 13 14  1  0  0  0  0
 13 19  2  0  0  0  0
 14 15  1  0  0  0  0
 15 16  1  0  0  0  0
 15 17  1  0  0  0  0
 15 18  1  0  0  0  0
 19 20  1  0  0  0  0
 19 31  1  0  0  0  0
 20 32  1  0  0  0  0
 21 33  1  0  0  0  0
M  END
$$$$
