ZINC000000048116      none
 OpenBabel11202420153D

 41 42  0  0  0  0  0  0  0  0999 V2000
   33.9456   38.2391   55.5552 C   0  0  0  0  0  0  0  0  0  0  0  0
   33.6151   38.6569   56.8812 O   0  0  0  0  0  0  0  0  0  0  0  0
   33.0525   37.7276   57.6990 C   0  0  0  0  0  0  0  0  0  0  0  0
   32.8252   36.4389   57.2302 C   0  0  0  0  0  0  0  0  0  0  0  0
   32.2544   35.4871   58.0523 C   0  0  0  0  0  0  0  0  0  0  0  0
   31.9084   35.8091   59.3549 C   0  0  0  0  0  0  0  0  0  0  0  0
   31.3522   34.8710   60.1635 O   0  0  0  0  0  0  0  0  0  0  0  0
   31.1561   33.5693   59.6076 C   0  0  0  0  0  0  0  0  0  0  0  0
   32.1303   37.1095   59.8342 C   0  0  0  0  0  0  0  0  0  0  0  0
   31.7625   37.4617   61.2125 C   0  0  0  0  0  0  0  0  0  0  0  0
   30.4792   37.3524   61.6178 C   0  0  0  0  0  0  0  0  0  0  0  0
   30.1133   37.7030   62.9892 C   0  0  0  0  0  0  0  0  0  0  0  0
   29.6146   36.8660   63.7189 O   0  0  0  0  0  0  0  0  0  0  0  0
   30.3283   38.9529   63.4454 N   0  0  0  0  0  0  0  0  0  0  0  0
   29.9785   39.2881   64.7569 C   0  0  0  0  0  0  0  0  0  0  0  0
   28.7114   39.7854   65.0338 C   0  0  0  0  0  0  0  0  0  0  0  0
   28.3672   40.1108   66.3321 C   0  0  0  0  0  0  0  0  0  0  0  0
   26.7819   40.7263   66.6809 Cl  0  0  0  0  0  0  0  0  0  0  0  0
   29.2877   39.9517   67.3536 C   0  0  0  0  0  0  0  0  0  0  0  0
   30.5510   39.4618   67.0796 C   0  0  0  0  0  0  0  0  0  0  0  0
   30.8991   39.1299   65.7846 C   0  0  0  0  0  0  0  0  0  0  0  0
   32.2769   38.5970   65.4873 C   0  0  0  0  0  0  0  0  0  0  0  0
   32.7091   38.0671   58.9939 C   0  0  0  0  0  0  0  0  0  0  0  0
   33.0427   37.9067   55.0433 H   0  0  0  0  0  0  0  0  0  0  0  0
   34.3858   39.0743   55.0102 H   0  0  0  0  0  0  0  0  0  0  0  0
   34.6609   37.4178   55.6007 H   0  0  0  0  0  0  0  0  0  0  0  0
   33.0961   36.1806   56.2172 H   0  0  0  0  0  0  0  0  0  0  0  0
   32.0815   34.4881   57.6803 H   0  0  0  0  0  0  0  0  0  0  0  0
   30.7056   32.9183   60.3569 H   0  0  0  0  0  0  0  0  0  0  0  0
   30.4962   33.6390   58.7430 H   0  0  0  0  0  0  0  0  0  0  0  0
   32.1170   33.1574   59.2991 H   0  0  0  0  0  0  0  0  0  0  0  0
   32.5188   37.8081   61.9014 H   0  0  0  0  0  0  0  0  0  0  0  0
   29.7223   37.0102   60.9277 H   0  0  0  0  0  0  0  0  0  0  0  0
   30.7256   39.6197   62.8640 H   0  0  0  0  0  0  0  0  0  0  0  0
   27.9948   39.9138   64.2360 H   0  0  0  0  0  0  0  0  0  0  0  0
   29.0184   40.2110   68.3669 H   0  0  0  0  0  0  0  0  0  0  0  0
   31.2669   39.3388   67.8788 H   0  0  0  0  0  0  0  0  0  0  0  0
   32.9465   39.4267   65.2610 H   0  0  0  0  0  0  0  0  0  0  0  0
   32.6516   38.0540   66.3550 H   0  0  0  0  0  0  0  0  0  0  0  0
   32.2294   37.9244   64.6308 H   0  0  0  0  0  0  0  0  0  0  0  0
   32.8873   39.0687   59.3563 H   0  0  0  0  0  0  0  0  0  0  0  0
  1  2  1  0  0  0  0
  1 24  1  0  0  0  0
  1 25  1  0  0  0  0
  1 26  1  0  0  0  0
  2  3  1  0  0  0  0
  3 23  2  0  0  0  0
  3  4  1  0  0  0  0
  4  5  2  0  0  0  0
  4 27  1  0  0  0  0
  5  6  1  0  0  0  0
  5 28  1  0  0  0  0
  6  7  1  0  0  0  0
  6  9  2  0  0  0  0
  7  8  1  0  0  0  0
  8 29  1  0  0  0  0
  8 30  1  0  0  0  0
  8 31  1  0  0  0  0
  9 10  1  0  0  0  0
  9 23  1  0  0  0  0
 10 11  2  0  0  0  0
 10 32  1  0  0  0  0
 11 12  1  0  0  0  0
 11 33  1  0  0  0  0
 12 13  2  0  0  0  0
 12 14  1  0  0  0  0
 14 15  1  0  0  0  0
 14 34  1  0  0  0  0
 15 21  2  0  0  0  0
 15 16  1  0  0  0  0
 16 17  2  0  0  0  0
 16 35  1  0  0  0  0
 17 18  1  0  0  0  0
 17 19  1  0  0  0  0
 19 20  2  0  0  0  0
 19 36  1  0  0  0  0
 20 21  1  0  0  0  0
 20 37  1  0  0  0  0
 21 22  1  0  0  0  0
 22 38  1  0  0  0  0
 22 39  1  0  0  0  0
 22 40  1  0  0  0  0
 23 41  1  0  0  0  0
M  END
$$$$
