ZINC000000030671      none
 OpenBabel11202420163D

 32 33  0  0  1  0  0  0  0  0999 V2000
   32.3891   34.3578   58.7189 C   0  0  0  0  0  0  0  0  0  0  0  0
   31.7390   35.6504   59.2157 C   0  0  1  0  0  0  0  0  0  0  0  0
   30.6581   35.5852   59.0900 H   0  0  0  0  0  0  0  0  0  0  0  0
   32.0472   35.8379   60.5984 O   0  0  0  0  0  0  0  0  0  0  0  0
   31.1299   36.5010   61.3507 C   0  0  0  0  0  0  0  0  0  0  0  0
   30.1225   35.7989   61.9963 C   0  0  0  0  0  0  0  0  0  0  0  0
   29.1910   36.4753   62.7601 C   0  0  0  0  0  0  0  0  0  0  0  0
   29.2625   37.8508   62.8816 C   0  0  0  0  0  0  0  0  0  0  0  0
   30.2621   38.5534   62.2344 C   0  0  0  0  0  0  0  0  0  0  0  0
   31.1991   37.8811   61.4737 C   0  0  0  0  0  0  0  0  0  0  0  0
   32.2677   36.8165   58.4207 C   0  0  0  0  0  0  0  0  0  0  0  0
   31.8768   37.9397   58.6585 O   0  0  0  0  0  0  0  0  0  0  0  0
   33.1751   36.6110   57.4455 N   0  0  0  0  0  0  0  0  0  0  0  0
   33.6647   37.6907   56.7094 C   0  0  0  0  0  0  0  0  0  0  0  0
   34.0745   37.5275   55.3871 C   0  0  0  0  0  0  0  0  0  0  0  0
   34.5483   38.6211   54.6923 C   0  0  0  0  0  0  0  0  0  0  0  0
   34.6252   39.8063   55.2672 N   0  0  0  0  0  0  0  0  0  0  0  0
   34.2520   40.0001   56.5182 C   0  0  0  0  0  0  0  0  0  0  0  0
   33.7622   38.9591   57.2793 C   0  0  0  0  0  0  0  0  0  0  0  0
   32.0067   33.5144   59.2940 H   0  0  0  0  0  0  0  0  0  0  0  0
   32.1541   34.2148   57.6642 H   0  0  0  0  0  0  0  0  0  0  0  0
   33.4698   34.4230   58.8447 H   0  0  0  0  0  0  0  0  0  0  0  0
   30.0666   34.7245   61.9023 H   0  0  0  0  0  0  0  0  0  0  0  0
   28.4065   35.9293   63.2629 H   0  0  0  0  0  0  0  0  0  0  0  0
   28.5335   38.3778   63.4794 H   0  0  0  0  0  0  0  0  0  0  0  0
   30.3129   39.6282   62.3271 H   0  0  0  0  0  0  0  0  0  0  0  0
   31.9822   38.4298   60.9717 H   0  0  0  0  0  0  0  0  0  0  0  0
   33.4877   35.7127   57.2554 H   0  0  0  0  0  0  0  0  0  0  0  0
   34.0181   36.5593   54.9119 H   0  0  0  0  0  0  0  0  0  0  0  0
   34.8645   38.5047   53.6662 H   0  0  0  0  0  0  0  0  0  0  0  0
   34.3314   40.9862   56.9516 H   0  0  0  0  0  0  0  0  0  0  0  0
   33.4589   39.1244   58.3026 H   0  0  0  0  0  0  0  0  0  0  0  0
  1  2  1  0  0  0  0
  1 20  1  0  0  0  0
  1 21  1  0  0  0  0
  1 22  1  0  0  0  0
  2  3  1  6  0  0  0
  2  4  1  0  0  0  0
  2 11  1  0  0  0  0
  4  5  1  0  0  0  0
  5 10  2  0  0  0  0
  5  6  1  0  0  0  0
  6  7  2  0  0  0  0
  6 23  1  0  0  0  0
  7  8  1  0  0  0  0
  7 24  1  0  0  0  0
  8  9  2  0  0  0  0
  8 25  1  0  0  0  0
  9 10  1  0  0  0  0
  9 26  1  0  0  0  0
 10 27  1  0  0  0  0
 11 12  2  0  0  0  0
 11 13  1  0  0  0  0
 13 14  1  0  0  0  0
 13 28  1  0  0  0  0
 14 19  2  0  0  0  0
 14 15  1  0  0  0  0
 15 16  2  0  0  0  0
 15 29  1  0  0  0  0
 16 17  1  0  0  0  0
 16 30  1  0  0  0  0
 17 18  2  0  0  0  0
 18 19  1  0  0  0  0
 18 31  1  0  0  0  0
 19 32  1  0  0  0  0
M  END
$$$$
