ZINC000000027679      none
 OpenBabel11202420153D

 29 30  0  0  1  0  0  0  0  0999 V2000
   33.3998   35.1444   56.5592 C   0  0  0  0  0  0  0  0  0  0  0  0
   33.5094   36.5034   56.9872 O   0  0  0  0  0  0  0  0  0  0  0  0
   32.8592   36.8443   58.1308 C   0  0  0  0  0  0  0  0  0  0  0  0
   32.9225   38.1469   58.6042 C   0  0  0  0  0  0  0  0  0  0  0  0
   32.2604   38.4910   59.7668 C   0  0  0  0  0  0  0  0  0  0  0  0
   31.5350   37.5386   60.4585 C   0  0  0  0  0  0  0  0  0  0  0  0
   30.8137   37.9167   61.7264 C   0  0  2  0  0  0  0  0  0  0  0  0
   29.7882   38.2643   61.6020 H   0  0  0  0  0  0  0  0  0  0  0  0
   31.5849   38.4838   62.7873 O   0  0  0  0  0  0  0  0  0  0  0  0
   31.1532   37.1382   62.9991 C   0  0  0  0  0  0  0  0  0  0  0  0
   32.1861   36.0454   62.8991 C   0  0  0  0  0  0  0  0  0  0  0  0
   31.8077   34.7853   62.6067 N   0  0  0  0  0  0  0  0  0  0  0  0
   33.3577   36.2997   63.0821 O   0  0  0  0  0  0  0  0  0  0  0  0
   30.0477   36.9039   63.9961 C   0  0  0  0  0  0  0  0  0  0  0  0
   30.3350   36.8001   65.3088 N   0  0  0  0  0  0  0  0  0  0  0  0
   28.8995   36.8091   63.6173 O   0  0  0  0  0  0  0  0  0  0  0  0
   31.4750   36.2384   59.9918 C   0  0  0  0  0  0  0  0  0  0  0  0
   32.1308   35.8905   58.8268 C   0  0  0  0  0  0  0  0  0  0  0  0
   33.9639   35.0075   55.6366 H   0  0  0  0  0  0  0  0  0  0  0  0
   33.8005   34.4871   57.3309 H   0  0  0  0  0  0  0  0  0  0  0  0
   32.3518   34.9021   56.3837 H   0  0  0  0  0  0  0  0  0  0  0  0
   33.4891   38.8912   58.0644 H   0  0  0  0  0  0  0  0  0  0  0  0
   32.3096   39.5049   60.1358 H   0  0  0  0  0  0  0  0  0  0  0  0
   30.8706   34.5819   62.4604 H   0  0  0  0  0  0  0  0  0  0  0  0
   32.4729   34.0827   62.5385 H   0  0  0  0  0  0  0  0  0  0  0  0
   31.2534   36.8759   65.6117 H   0  0  0  0  0  0  0  0  0  0  0  0
   29.6236   36.6492   65.9506 H   0  0  0  0  0  0  0  0  0  0  0  0
   30.9118   35.4951   60.5366 H   0  0  0  0  0  0  0  0  0  0  0  0
   32.0800   34.8759   58.4604 H   0  0  0  0  0  0  0  0  0  0  0  0
  1  2  1  0  0  0  0
  1 19  1  0  0  0  0
  1 20  1  0  0  0  0
  1 21  1  0  0  0  0
  2  3  1  0  0  0  0
  3 18  2  0  0  0  0
  3  4  1  0  0  0  0
  4  5  2  0  0  0  0
  4 22  1  0  0  0  0
  5  6  1  0  0  0  0
  5 23  1  0  0  0  0
  6  7  1  0  0  0  0
  6 17  2  0  0  0  0
  7  8  1  6  0  0  0
  7 10  1  0  0  0  0
  7  9  1  0  0  0  0
  9 10  1  0  0  0  0
 10 11  1  0  0  0  0
 10 14  1  0  0  0  0
 11 12  1  0  0  0  0
 11 13  2  0  0  0  0
 12 24  1  0  0  0  0
 12 25  1  0  0  0  0
 14 15  1  0  0  0  0
 14 16  2  0  0  0  0
 15 26  1  0  0  0  0
 15 27  1  0  0  0  0
 17 18  1  0  0  0  0
 17 28  1  0  0  0  0
 18 29  1  0  0  0  0
M  END
$$$$
