ZINC000000029503      none
 OpenBabel11202420163D

 28 28  0  0  0  0  0  0  0  0999 V2000
   32.9926   39.6235   59.2070 C   0  0  0  0  0  0  0  0  0  0  0  0
   33.4013   39.2935   57.8780 O   0  0  0  0  0  0  0  0  0  0  0  0
   33.2647   37.9960   57.4942 C   0  0  0  0  0  0  0  0  0  0  0  0
   33.6369   37.6089   56.2155 C   0  0  0  0  0  0  0  0  0  0  0  0
   33.4984   36.2910   55.8221 C   0  0  0  0  0  0  0  0  0  0  0  0
   32.9867   35.3530   56.7061 C   0  0  0  0  0  0  0  0  0  0  0  0
   32.8454   34.0162   56.3068 N   0  0  0  0  0  0  0  0  0  0  0  0
   33.8818   33.3725   55.1871 S   0  0  0  0  0  0  0  0  0  0  0  0
   33.0822   33.6962   53.5915 C   0  0  0  0  0  0  0  0  0  0  0  0
   35.0653   34.1482   55.3183 O   0  0  0  0  0  0  0  0  0  0  0  0
   33.8834   31.9801   55.4708 O   0  0  0  0  0  0  0  0  0  0  0  0
   32.6129   35.7401   57.9907 C   0  0  0  0  0  0  0  0  0  0  0  0
   32.1107   34.8222   58.8596 O   0  0  0  0  0  0  0  0  0  0  0  0
   31.7484   35.2902   60.1602 C   0  0  0  0  0  0  0  0  0  0  0  0
   32.7479   37.0624   58.3800 C   0  0  0  0  0  0  0  0  0  0  0  0
   33.5769   39.0436   59.9213 H   0  0  0  0  0  0  0  0  0  0  0  0
   33.1543   40.6868   59.3834 H   0  0  0  0  0  0  0  0  0  0  0  0
   31.9347   39.3915   59.3298 H   0  0  0  0  0  0  0  0  0  0  0  0
   34.0353   38.3384   55.5259 H   0  0  0  0  0  0  0  0  0  0  0  0
   33.7886   35.9918   54.8258 H   0  0  0  0  0  0  0  0  0  0  0  0
   32.1405   33.4686   56.6864 H   0  0  0  0  0  0  0  0  0  0  0  0
   32.9568   34.7708   53.4593 H   0  0  0  0  0  0  0  0  0  0  0  0
   33.7030   33.3013   52.7872 H   0  0  0  0  0  0  0  0  0  0  0  0
   32.1065   33.2109   53.5689 H   0  0  0  0  0  0  0  0  0  0  0  0
   31.3633   34.4594   60.7512 H   0  0  0  0  0  0  0  0  0  0  0  0
   30.9802   36.0581   60.0691 H   0  0  0  0  0  0  0  0  0  0  0  0
   32.6255   35.7104   60.6525 H   0  0  0  0  0  0  0  0  0  0  0  0
   32.4545   37.3656   59.3742 H   0  0  0  0  0  0  0  0  0  0  0  0
  1  2  1  0  0  0  0
  1 16  1  0  0  0  0
  1 17  1  0  0  0  0
  1 18  1  0  0  0  0
  2  3  1  0  0  0  0
  3 15  2  0  0  0  0
  3  4  1  0  0  0  0
  4  5  2  0  0  0  0
  4 19  1  0  0  0  0
  5  6  1  0  0  0  0
  5 20  1  0  0  0  0
  6  7  1  0  0  0  0
  6 12  2  0  0  0  0
  7  8  1  0  0  0  0
  7 21  1  0  0  0  0
  8  9  1  0  0  0  0
  8 10  2  0  0  0  0
  8 11  2  0  0  0  0
  9 22  1  0  0  0  0
  9 23  1  0  0  0  0
  9 24  1  0  0  0  0
 12 13  1  0  0  0  0
 12 15  1  0  0  0  0
 13 14  1  0  0  0  0
 14 25  1  0  0  0  0
 14 26  1  0  0  0  0
 14 27  1  0  0  0  0
 15 28  1  0  0  0  0
M  END
$$$$
