ZINC000000033142      none
 OpenBabel11202420153D

 24 26  0  0  0  0  0  0  0  0999 V2000
   30.3711   38.2216   65.3148 C   0  0  0  0  0  0  0  0  0  0  0  0
   30.5112   38.4300   63.8288 C   0  0  0  0  0  0  0  0  0  0  0  0
   29.8919   39.3194   63.1055 N   0  0  0  0  0  0  0  0  0  0  0  0
   30.2087   39.2545   61.9406 O   0  0  0  0  0  0  0  0  0  0  0  0
   31.1045   38.2735   61.7284 C   0  0  0  0  0  0  0  0  0  0  0  0
   31.7170   37.8945   60.4384 C   0  0  0  0  0  0  0  0  0  0  0  0
   31.5414   36.6051   59.9324 C   0  0  0  0  0  0  0  0  0  0  0  0
   32.1131   36.2534   58.7279 C   0  0  0  0  0  0  0  0  0  0  0  0
   32.8638   37.1772   58.0151 C   0  0  0  0  0  0  0  0  0  0  0  0
   33.0434   38.4666   58.5153 C   0  0  0  0  0  0  0  0  0  0  0  0
   32.4725   38.8248   59.7222 C   0  0  0  0  0  0  0  0  0  0  0  0
   33.8124   39.1723   57.6351 O   0  0  0  0  0  0  0  0  0  0  0  0
   33.7598   38.4331   56.4006 C   0  0  0  0  0  0  0  0  0  0  0  0
   33.5210   37.0776   56.8230 O   0  0  0  0  0  0  0  0  0  0  0  0
   31.3386   37.7013   62.9501 C   0  0  0  0  0  0  0  0  0  0  0  0
   32.6256   36.1125   63.4070 I   0  0  0  0  0  0  0  0  0  0  0  0
   31.1010   38.8387   65.8387 H   0  0  0  0  0  0  0  0  0  0  0  0
   29.3658   38.5032   65.6280 H   0  0  0  0  0  0  0  0  0  0  0  0
   30.5452   37.1721   65.5525 H   0  0  0  0  0  0  0  0  0  0  0  0
   30.9574   35.8833   60.4841 H   0  0  0  0  0  0  0  0  0  0  0  0
   31.9757   35.2557   58.3379 H   0  0  0  0  0  0  0  0  0  0  0  0
   32.6103   39.8232   60.1103 H   0  0  0  0  0  0  0  0  0  0  0  0
   34.7087   38.5071   55.8693 H   0  0  0  0  0  0  0  0  0  0  0  0
   32.9409   38.7894   55.7756 H   0  0  0  0  0  0  0  0  0  0  0  0
  1  2  1  0  0  0  0
  1 17  1  0  0  0  0
  1 18  1  0  0  0  0
  1 19  1  0  0  0  0
  2 15  1  0  0  0  0
  2  3  2  0  0  0  0
  3  4  1  0  0  0  0
  4  5  1  0  0  0  0
  5  6  1  0  0  0  0
  5 15  2  0  0  0  0
  6 11  2  0  0  0  0
  6  7  1  0  0  0  0
  7  8  2  0  0  0  0
  7 20  1  0  0  0  0
  8  9  1  0  0  0  0
  8 21  1  0  0  0  0
  9 14  1  0  0  0  0
  9 10  2  0  0  0  0
 10 11  1  0  0  0  0
 10 12  1  0  0  0  0
 11 22  1  0  0  0  0
 12 13  1  0  0  0  0
 13 14  1  0  0  0  0
 13 23  1  0  0  0  0
 13 24  1  0  0  0  0
 15 16  1  0  0  0  0
M  END
$$$$
