ZINC000000044217      none
 OpenBabel11202420153D

 37 39  0  0  1  0  0  0  0  0999 V2000
   28.4551   39.4993   63.9095 O   0  0  0  0  0  0  0  0  0  0  0  0
   29.5711   39.0168   63.9539 C   0  0  0  0  0  0  0  0  0  0  0  0
   30.0397   38.1562   62.8677 C   0  0  0  0  0  0  0  0  0  0  0  0
   30.6819   38.6939   61.8103 C   0  0  0  0  0  0  0  0  0  0  0  0
   31.1534   37.8281   60.7175 C   0  0  0  0  0  0  0  0  0  0  0  0
   30.6025   36.5547   60.5422 C   0  0  0  0  0  0  0  0  0  0  0  0
   31.0452   35.7519   59.5122 C   0  0  0  0  0  0  0  0  0  0  0  0
   32.0407   36.1985   58.6607 C   0  0  0  0  0  0  0  0  0  0  0  0
   32.5948   37.4553   58.8312 C   0  0  0  0  0  0  0  0  0  0  0  0
   32.1586   38.2723   59.8527 C   0  0  0  0  0  0  0  0  0  0  0  0
   30.3775   39.2796   65.0013 N   0  0  0  0  0  0  0  0  0  0  0  0
   31.6220   38.8097   65.1638 C   0  0  0  0  0  0  0  0  0  0  0  0
   32.1642   38.0774   64.3605 O   0  0  0  0  0  0  0  0  0  0  0  0
   32.2124   39.2204   66.2914 O   0  0  0  0  0  0  0  0  0  0  0  0
   31.3005   40.0830   67.0310 C   0  0  0  0  0  0  0  0  0  0  0  0
   30.0378   40.1342   66.1492 C   0  0  2  0  0  0  0  0  0  0  0  0
   29.8388   41.1546   65.8213 H   0  0  0  0  0  0  0  0  0  0  0  0
   28.8525   39.5751   66.8930 C   0  0  0  0  0  0  0  0  0  0  0  0
   27.9937   40.4255   67.5640 C   0  0  0  0  0  0  0  0  0  0  0  0
   26.9039   39.9129   68.2426 C   0  0  0  0  0  0  0  0  0  0  0  0
   26.6781   38.5492   68.2580 C   0  0  0  0  0  0  0  0  0  0  0  0
   27.5396   37.6984   67.5910 C   0  0  0  0  0  0  0  0  0  0  0  0
   28.6270   38.2114   66.9089 C   0  0  0  0  0  0  0  0  0  0  0  0
   29.8714   37.0902   62.9124 H   0  0  0  0  0  0  0  0  0  0  0  0
   30.8502   39.7598   61.7657 H   0  0  0  0  0  0  0  0  0  0  0  0
   29.8290   36.2028   61.2089 H   0  0  0  0  0  0  0  0  0  0  0  0
   30.6171   34.7702   59.3723 H   0  0  0  0  0  0  0  0  0  0  0  0
   32.3866   35.5632   57.8588 H   0  0  0  0  0  0  0  0  0  0  0  0
   33.3708   37.7970   58.1622 H   0  0  0  0  0  0  0  0  0  0  0  0
   32.5918   39.2529   59.9842 H   0  0  0  0  0  0  0  0  0  0  0  0
   31.0725   39.6516   68.0058 H   0  0  0  0  0  0  0  0  0  0  0  0
   31.7259   41.0799   67.1457 H   0  0  0  0  0  0  0  0  0  0  0  0
   28.1724   41.4905   67.5554 H   0  0  0  0  0  0  0  0  0  0  0  0
   26.2306   40.5777   68.7635 H   0  0  0  0  0  0  0  0  0  0  0  0
   25.8285   38.1485   68.7911 H   0  0  0  0  0  0  0  0  0  0  0  0
   27.3633   36.6329   67.6032 H   0  0  0  0  0  0  0  0  0  0  0  0
   29.3002   37.5466   66.3880 H   0  0  0  0  0  0  0  0  0  0  0  0
  1  2  2  0  0  0  0
  2  3  1  0  0  0  0
  2 11  1  0  0  0  0
  3  4  2  0  0  0  0
  3 24  1  0  0  0  0
  4  5  1  0  0  0  0
  4 25  1  0  0  0  0
  5 10  2  0  0  0  0
  5  6  1  0  0  0  0
  6  7  2  0  0  0  0
  6 26  1  0  0  0  0
  7  8  1  0  0  0  0
  7 27  1  0  0  0  0
  8  9  2  0  0  0  0
  8 28  1  0  0  0  0
  9 10  1  0  0  0  0
  9 29  1  0  0  0  0
 10 30  1  0  0  0  0
 11 16  1  0  0  0  0
 11 12  1  0  0  0  0
 12 13  2  0  0  0  0
 12 14  1  0  0  0  0
 14 15  1  0  0  0  0
 15 16  1  0  0  0  0
 15 31  1  0  0  0  0
 15 32  1  0  0  0  0
 16 17  1  6  0  0  0
 16 18  1  0  0  0  0
 18 23  2  0  0  0  0
 18 19  1  0  0  0  0
 19 20  2  0  0  0  0
 19 33  1  0  0  0  0
 20 21  1  0  0  0  0
 20 34  1  0  0  0  0
 21 22  2  0  0  0  0
 21 35  1  0  0  0  0
 22 23  1  0  0  0  0
 22 36  1  0  0  0  0
 23 37  1  0  0  0  0
M  END
$$$$
