ZINC000000031842      none
 OpenBabel11202420163D

 39 41  0  0  1  0  0  0  0  0999 V2000
   29.6922   40.1584   65.8525 C   0  0  0  0  0  0  0  0  0  0  0  0
   30.2164   38.8495   66.0851 O   0  0  0  0  0  0  0  0  0  0  0  0
   30.6254   38.1463   64.9965 C   0  0  0  0  0  0  0  0  0  0  0  0
   31.1454   36.8692   65.1493 C   0  0  0  0  0  0  0  0  0  0  0  0
   31.5610   36.1566   64.0412 C   0  0  0  0  0  0  0  0  0  0  0  0
   31.4596   36.7154   62.7806 C   0  0  0  0  0  0  0  0  0  0  0  0
   31.9199   35.9385   61.5741 C   0  0  2  0  0  0  0  0  0  0  0  0
   32.7333   35.2720   61.8606 H   0  0  0  0  0  0  0  0  0  0  0  0
   32.4048   36.8956   60.5168 C   0  0  0  0  0  0  0  0  0  0  0  0
   32.3626   36.5647   59.2304 C   0  0  0  0  0  0  0  0  0  0  0  0
   32.8714   37.5170   58.2166 C   0  0  0  0  0  0  0  0  0  0  0  0
   33.4253   37.0437   57.0275 C   0  0  0  0  0  0  0  0  0  0  0  0
   33.8917   37.9360   56.0838 C   0  0  0  0  0  0  0  0  0  0  0  0
   33.8220   39.2971   56.3209 C   0  0  0  0  0  0  0  0  0  0  0  0
   33.2792   39.7724   57.5012 C   0  0  0  0  0  0  0  0  0  0  0  0
   32.8036   38.8901   58.4497 C   0  0  0  0  0  0  0  0  0  0  0  0
   31.8467   35.3358   58.8189 N   0  0  0  0  0  0  0  0  0  0  0  0
   31.1150   34.5831   59.6611 C   0  0  0  0  0  0  0  0  0  0  0  0
   30.7454   33.4789   59.3222 O   0  0  0  0  0  0  0  0  0  0  0  0
   30.7550   35.1123   61.0258 C   0  0  2  0  0  0  0  0  0  0  0  0
   30.5529   34.2783   61.6978 H   0  0  0  0  0  0  0  0  0  0  0  0
   29.5569   35.9613   60.9221 C   0  0  0  0  0  0  0  0  0  0  0  0
   28.6323   36.6164   60.8420 N   0  0  0  0  0  0  0  0  0  0  0  0
   30.9417   37.9881   62.6255 C   0  0  0  0  0  0  0  0  0  0  0  0
   30.5244   38.7046   63.7305 C   0  0  0  0  0  0  0  0  0  0  0  0
   29.4039   40.6083   66.8026 H   0  0  0  0  0  0  0  0  0  0  0  0
   30.4535   40.7750   65.3747 H   0  0  0  0  0  0  0  0  0  0  0  0
   28.8195   40.0902   65.2031 H   0  0  0  0  0  0  0  0  0  0  0  0
   31.2249   36.4323   66.1338 H   0  0  0  0  0  0  0  0  0  0  0  0
   31.9657   35.1625   64.1597 H   0  0  0  0  0  0  0  0  0  0  0  0
   32.7909   37.8616   60.8074 H   0  0  0  0  0  0  0  0  0  0  0  0
   33.4846   35.9812   56.8434 H   0  0  0  0  0  0  0  0  0  0  0  0
   34.3159   37.5708   55.1602 H   0  0  0  0  0  0  0  0  0  0  0  0
   34.1927   39.9915   55.5814 H   0  0  0  0  0  0  0  0  0  0  0  0
   33.2272   40.8362   57.6805 H   0  0  0  0  0  0  0  0  0  0  0  0
   32.3799   39.2625   59.3707 H   0  0  0  0  0  0  0  0  0  0  0  0
   32.0167   35.0209   57.9173 H   0  0  0  0  0  0  0  0  0  0  0  0
   30.8639   38.4226   61.6398 H   0  0  0  0  0  0  0  0  0  0  0  0
   30.1197   39.6985   63.6088 H   0  0  0  0  0  0  0  0  0  0  0  0
  1  2  1  0  0  0  0
  1 26  1  0  0  0  0
  1 27  1  0  0  0  0
  1 28  1  0  0  0  0
  2  3  1  0  0  0  0
  3 25  2  0  0  0  0
  3  4  1  0  0  0  0
  4  5  2  0  0  0  0
  4 29  1  0  0  0  0
  5  6  1  0  0  0  0
  5 30  1  0  0  0  0
  6  7  1  0  0  0  0
  6 24  2  0  0  0  0
  7  8  1  1  0  0  0
  7 20  1  0  0  0  0
  7  9  1  0  0  0  0
  9 10  2  0  0  0  0
  9 31  1  0  0  0  0
 10 11  1  0  0  0  0
 10 17  1  0  0  0  0
 11 16  2  0  0  0  0
 11 12  1  0  0  0  0
 12 13  2  0  0  0  0
 12 32  1  0  0  0  0
 13 14  1  0  0  0  0
 13 33  1  0  0  0  0
 14 15  2  0  0  0  0
 14 34  1  0  0  0  0
 15 16  1  0  0  0  0
 15 35  1  0  0  0  0
 16 36  1  0  0  0  0
 17 18  1  0  0  0  0
 17 37  1  0  0  0  0
 18 19  2  0  0  0  0
 18 20  1  0  0  0  0
 20 21  1  1  0  0  0
 20 22  1  0  0  0  0
 22 23  3  0  0  0  0
 24 25  1  0  0  0  0
 24 38  1  0  0  0  0
 25 39  1  0  0  0  0
M  END
$$$$
