ZINC000000037548      none
 OpenBabel11202420153D

 37 39  0  0  0  0  0  0  0  0999 V2000
   31.8785   36.0801   66.0260 O   0  0  0  0  0  0  0  0  0  0  0  0
   31.0776   36.6642   65.3222 C   0  0  0  0  0  0  0  0  0  0  0  0
   30.2149   37.7158   65.9004 C   0  0  0  0  0  0  0  0  0  0  0  0
   28.9697   37.3840   66.4374 C   0  0  0  0  0  0  0  0  0  0  0  0
   28.1695   38.3697   66.9759 C   0  0  0  0  0  0  0  0  0  0  0  0
   28.5988   39.6862   66.9846 C   0  0  0  0  0  0  0  0  0  0  0  0
   27.4953   41.0315   67.7250 Br  0  0  0  0  0  0  0  0  0  0  0  0
   29.8304   40.0224   66.4483 C   0  0  0  0  0  0  0  0  0  0  0  0
   30.6421   39.0448   65.9121 C   0  0  0  0  0  0  0  0  0  0  0  0
   30.9764   36.3528   64.0149 N   0  0  0  0  0  0  0  0  0  0  0  0
   30.0100   37.0429   63.1471 C   0  0  0  0  0  0  0  0  0  0  0  0
   30.7566   37.5533   61.9045 C   0  0  0  0  0  0  0  0  0  0  0  0
   31.4685   36.4341   61.2732 N   0  0  0  0  0  0  0  0  0  0  0  0
   32.0200   36.8173   60.0563 C   0  0  0  0  0  0  0  0  0  0  0  0
   32.1690   35.8782   59.0405 C   0  0  0  0  0  0  0  0  0  0  0  0
   32.7192   36.2733   57.8348 C   0  0  0  0  0  0  0  0  0  0  0  0
   33.1035   37.5995   57.6843 C   0  0  0  0  0  0  0  0  0  0  0  0
   32.9267   38.4779   58.7342 C   0  0  0  0  0  0  0  0  0  0  0  0
   32.3938   38.0741   59.8722 N   0  0  0  0  0  0  0  0  0  0  0  0
   32.4963   35.8842   62.1673 C   0  0  0  0  0  0  0  0  0  0  0  0
   31.8252   35.3097   63.4193 C   0  0  0  0  0  0  0  0  0  0  0  0
   28.6339   36.3576   66.4315 H   0  0  0  0  0  0  0  0  0  0  0  0
   27.2061   38.1142   67.3920 H   0  0  0  0  0  0  0  0  0  0  0  0
   30.1579   41.0515   66.4540 H   0  0  0  0  0  0  0  0  0  0  0  0
   31.6045   39.3076   65.4985 H   0  0  0  0  0  0  0  0  0  0  0  0
   29.2257   36.3478   62.8470 H   0  0  0  0  0  0  0  0  0  0  0  0
   29.5716   37.8843   63.6838 H   0  0  0  0  0  0  0  0  0  0  0  0
   31.4727   38.3213   62.1968 H   0  0  0  0  0  0  0  0  0  0  0  0
   30.0406   37.9736   61.1982 H   0  0  0  0  0  0  0  0  0  0  0  0
   31.8596   34.8547   59.1916 H   0  0  0  0  0  0  0  0  0  0  0  0
   32.8468   35.5667   57.0280 H   0  0  0  0  0  0  0  0  0  0  0  0
   33.5361   37.9400   56.7552 H   0  0  0  0  0  0  0  0  0  0  0  0
   33.2241   39.5100   58.6216 H   0  0  0  0  0  0  0  0  0  0  0  0
   33.1882   36.6754   62.4560 H   0  0  0  0  0  0  0  0  0  0  0  0
   33.0421   35.0938   61.6520 H   0  0  0  0  0  0  0  0  0  0  0  0
   32.5876   35.0046   64.1362 H   0  0  0  0  0  0  0  0  0  0  0  0
   31.2122   34.4512   63.1450 H   0  0  0  0  0  0  0  0  0  0  0  0
  1  2  2  0  0  0  0
  2  3  1  0  0  0  0
  2 10  1  0  0  0  0
  3  9  2  0  0  0  0
  3  4  1  0  0  0  0
  4  5  2  0  0  0  0
  4 22  1  0  0  0  0
  5  6  1  0  0  0  0
  5 23  1  0  0  0  0
  6  7  1  0  0  0  0
  6  8  2  0  0  0  0
  8  9  1  0  0  0  0
  8 24  1  0  0  0  0
  9 25  1  0  0  0  0
 10 21  1  0  0  0  0
 10 11  1  0  0  0  0
 11 12  1  0  0  0  0
 11 26  1  0  0  0  0
 11 27  1  0  0  0  0
 12 13  1  0  0  0  0
 12 28  1  0  0  0  0
 12 29  1  0  0  0  0
 13 14  1  0  0  0  0
 13 20  1  0  0  0  0
 14 19  2  0  0  0  0
 14 15  1  0  0  0  0
 15 16  2  0  0  0  0
 15 30  1  0  0  0  0
 16 17  1  0  0  0  0
 16 31  1  0  0  0  0
 17 18  2  0  0  0  0
 17 32  1  0  0  0  0
 18 19  1  0  0  0  0
 18 33  1  0  0  0  0
 20 21  1  0  0  0  0
 20 34  1  0  0  0  0
 20 35  1  0  0  0  0
 21 36  1  0  0  0  0
 21 37  1  0  0  0  0
M  END
$$$$
