ZINC000000037095      none
 OpenBabel11202420153D

 27 28  0  0  0  0  0  0  0  0999 V2000
   31.5540   36.2693   61.5986 C   0  0  0  0  0  0  0  0  0  0  0  0
   32.4325   36.9743   60.6825 O   0  0  0  0  0  0  0  0  0  0  0  0
   31.8514   37.6151   59.6484 C   0  0  0  0  0  0  0  0  0  0  0  0
   30.6433   37.5852   59.5163 O   0  0  0  0  0  0  0  0  0  0  0  0
   32.6787   38.3499   58.6805 C   0  0  0  0  0  0  0  0  0  0  0  0
   33.0503   39.6749   58.7581 C   0  0  0  0  0  0  0  0  0  0  0  0
   33.8305   39.9632   57.6368 C   0  0  0  0  0  0  0  0  0  0  0  0
   33.9420   38.8817   56.9097 N   0  0  0  0  0  0  0  0  0  0  0  0
   33.2285   37.8465   57.5266 N   0  0  0  0  0  0  0  0  0  0  0  0
   33.1078   36.5830   57.0732 C   0  0  0  0  0  0  0  0  0  0  0  0
   32.9748   35.6661   57.8586 O   0  0  0  0  0  0  0  0  0  0  0  0
   33.1373   36.3137   55.6224 C   0  0  0  0  0  0  0  0  0  0  0  0
   32.4357   35.2259   55.0964 C   0  0  0  0  0  0  0  0  0  0  0  0
   32.4627   34.9830   53.7396 C   0  0  0  0  0  0  0  0  0  0  0  0
   33.1927   35.8082   52.8996 C   0  0  0  0  0  0  0  0  0  0  0  0
   33.2279   35.4916   51.1931 Cl  0  0  0  0  0  0  0  0  0  0  0  0
   33.8951   36.8851   53.4155 C   0  0  0  0  0  0  0  0  0  0  0  0
   33.8716   37.1420   54.7698 C   0  0  0  0  0  0  0  0  0  0  0  0
   30.9997   35.5045   61.0544 H   0  0  0  0  0  0  0  0  0  0  0  0
   32.1482   35.7989   62.3822 H   0  0  0  0  0  0  0  0  0  0  0  0
   30.8547   36.9750   62.0471 H   0  0  0  0  0  0  0  0  0  0  0  0
   32.7858   40.3658   59.5449 H   0  0  0  0  0  0  0  0  0  0  0  0
   34.2736   40.9215   57.4093 H   0  0  0  0  0  0  0  0  0  0  0  0
   31.8702   34.5791   55.7509 H   0  0  0  0  0  0  0  0  0  0  0  0
   31.9176   34.1449   53.3312 H   0  0  0  0  0  0  0  0  0  0  0  0
   34.4626   37.5244   52.7555 H   0  0  0  0  0  0  0  0  0  0  0  0
   34.4198   37.9816   55.1709 H   0  0  0  0  0  0  0  0  0  0  0  0
  1  2  1  0  0  0  0
  1 19  1  0  0  0  0
  1 20  1  0  0  0  0
  1 21  1  0  0  0  0
  2  3  1  0  0  0  0
  3  4  2  0  0  0  0
  3  5  1  0  0  0  0
  5  9  1  0  0  0  0
  5  6  2  0  0  0  0
  6  7  1  0  0  0  0
  6 22  1  0  0  0  0
  7  8  2  0  0  0  0
  7 23  1  0  0  0  0
  8  9  1  0  0  0  0
  9 10  1  0  0  0  0
 10 11  2  0  0  0  0
 10 12  1  0  0  0  0
 12 18  2  0  0  0  0
 12 13  1  0  0  0  0
 13 14  2  0  0  0  0
 13 24  1  0  0  0  0
 14 15  1  0  0  0  0
 14 25  1  0  0  0  0
 15 16  1  0  0  0  0
 15 17  2  0  0  0  0
 17 18  1  0  0  0  0
 17 26  1  0  0  0  0
 18 27  1  0  0  0  0
M  END
$$$$
