ZINC000000034392      none
 OpenBabel11202420153D

 26 27  0  0  0  0  0  0  0  0999 V2000
   32.4862   35.8391   54.1991 C   0  0  0  0  0  0  0  0  0  0  0  0
   33.8653   36.1059   54.8056 C   0  0  0  0  0  0  0  0  0  0  0  0
   34.9466   35.8040   53.7661 C   0  0  0  0  0  0  0  0  0  0  0  0
   33.9545   37.4760   55.2015 O   0  0  0  0  0  0  0  0  0  0  0  0
   33.5675   37.7783   56.4667 C   0  0  0  0  0  0  0  0  0  0  0  0
   33.6331   39.1109   56.9132 C   0  0  0  0  0  0  0  0  0  0  0  0
   33.2532   39.4254   58.1802 C   0  0  0  0  0  0  0  0  0  0  0  0
   32.7868   38.4036   59.0288 C   0  0  0  0  0  0  0  0  0  0  0  0
   32.3500   38.3779   60.2778 N   0  0  0  0  0  0  0  0  0  0  0  0
   32.0368   37.1695   60.5929 N   0  0  0  0  0  0  0  0  0  0  0  0
   32.2524   36.3677   59.5792 C   0  0  0  0  0  0  0  0  0  0  0  0
   32.0099   34.8806   59.5546 C   0  0  0  0  0  0  0  0  0  0  0  0
   31.5109   34.4689   60.7950 F   0  0  0  0  0  0  0  0  0  0  0  0
   31.0808   34.5762   58.5538 F   0  0  0  0  0  0  0  0  0  0  0  0
   33.2127   34.2162   59.2919 F   0  0  0  0  0  0  0  0  0  0  0  0
   32.7310   37.1138   58.5610 N   0  0  0  0  0  0  0  0  0  0  0  0
   33.1339   36.8253   57.2554 N   0  0  0  0  0  0  0  0  0  0  0  0
   31.7159   36.0542   54.9397 H   0  0  0  0  0  0  0  0  0  0  0  0
   32.3421   36.4790   53.3286 H   0  0  0  0  0  0  0  0  0  0  0  0
   32.4180   34.7940   53.8972 H   0  0  0  0  0  0  0  0  0  0  0  0
   34.0094   35.4660   55.6762 H   0  0  0  0  0  0  0  0  0  0  0  0
   35.9291   35.9940   54.1982 H   0  0  0  0  0  0  0  0  0  0  0  0
   34.8785   34.7588   53.4641 H   0  0  0  0  0  0  0  0  0  0  0  0
   34.8025   36.4438   52.8956 H   0  0  0  0  0  0  0  0  0  0  0  0
   33.9889   39.8849   56.2493 H   0  0  0  0  0  0  0  0  0  0  0  0
   33.3042   40.4461   58.5295 H   0  0  0  0  0  0  0  0  0  0  0  0
  1  2  1  0  0  0  0
  1 18  1  0  0  0  0
  1 19  1  0  0  0  0
  1 20  1  0  0  0  0
  2  3  1  0  0  0  0
  2  4  1  0  0  0  0
  2 21  1  0  0  0  0
  3 22  1  0  0  0  0
  3 23  1  0  0  0  0
  3 24  1  0  0  0  0
  4  5  1  0  0  0  0
  5 17  2  0  0  0  0
  5  6  1  0  0  0  0
  6  7  2  0  0  0  0
  6 25  1  0  0  0  0
  7  8  1  0  0  0  0
  7 26  1  0  0  0  0
  8 16  1  0  0  0  0
  8  9  2  0  0  0  0
  9 10  1  0  0  0  0
 10 11  2  0  0  0  0
 11 12  1  0  0  0  0
 11 16  1  0  0  0  0
 12 13  1  0  0  0  0
 12 14  1  0  0  0  0
 12 15  1  0  0  0  0
 16 17  1  0  0  0  0
M  END
$$$$
