ZINC000000057588      none
 OpenBabel11202420153D

 35 37  0  0  0  0  0  0  0  0999 V2000
   28.8074   33.0084   65.3187 C   0  0  0  0  0  0  0  0  0  0  0  0
   29.7062   32.5167   64.3216 O   0  0  0  0  0  0  0  0  0  0  0  0
   30.2251   33.4280   63.4570 C   0  0  0  0  0  0  0  0  0  0  0  0
   31.1047   33.0171   62.4645 C   0  0  0  0  0  0  0  0  0  0  0  0
   31.6340   33.9389   61.5854 C   0  0  0  0  0  0  0  0  0  0  0  0
   31.2848   35.2839   61.6943 C   0  0  0  0  0  0  0  0  0  0  0  0
   31.8521   36.2777   60.7505 C   0  0  0  0  0  0  0  0  0  0  0  0
   32.0445   37.5659   61.1348 C   0  0  0  0  0  0  0  0  0  0  0  0
   32.5574   38.4905   60.3185 O   0  0  0  0  0  0  0  0  0  0  0  0
   32.9232   38.2339   59.0472 C   0  0  0  0  0  0  0  0  0  0  0  0
   33.4515   39.2390   58.2475 C   0  0  0  0  0  0  0  0  0  0  0  0
   33.8225   38.9579   56.9437 C   0  0  0  0  0  0  0  0  0  0  0  0
   34.3386   39.9423   56.1643 O   0  0  0  0  0  0  0  0  0  0  0  0
   34.7019   39.5887   54.8284 C   0  0  0  0  0  0  0  0  0  0  0  0
   33.6713   37.6739   56.4241 C   0  0  0  0  0  0  0  0  0  0  0  0
   33.1540   36.6741   57.1970 C   0  0  0  0  0  0  0  0  0  0  0  0
   32.7745   36.9420   58.5132 C   0  0  0  0  0  0  0  0  0  0  0  0
   32.2121   35.8879   59.3765 C   0  0  0  0  0  0  0  0  0  0  0  0
   32.0574   34.7476   58.9744 O   0  0  0  0  0  0  0  0  0  0  0  0
   30.4058   35.6939   62.6953 C   0  0  0  0  0  0  0  0  0  0  0  0
   29.8754   34.7664   63.5677 C   0  0  0  0  0  0  0  0  0  0  0  0
   29.3198   33.7432   65.9397 H   0  0  0  0  0  0  0  0  0  0  0  0
   27.9494   33.4761   64.8355 H   0  0  0  0  0  0  0  0  0  0  0  0
   28.4674   32.1806   65.9409 H   0  0  0  0  0  0  0  0  0  0  0  0
   31.3749   31.9748   62.3808 H   0  0  0  0  0  0  0  0  0  0  0  0
   32.3180   33.6187   60.8134 H   0  0  0  0  0  0  0  0  0  0  0  0
   31.7766   37.8529   62.1409 H   0  0  0  0  0  0  0  0  0  0  0  0
   33.5730   40.2371   58.6418 H   0  0  0  0  0  0  0  0  0  0  0  0
   33.8225   39.2250   54.2968 H   0  0  0  0  0  0  0  0  0  0  0  0
   35.0997   40.4647   54.3161 H   0  0  0  0  0  0  0  0  0  0  0  0
   35.4606   38.8065   54.8531 H   0  0  0  0  0  0  0  0  0  0  0  0
   33.9651   37.4682   55.4054 H   0  0  0  0  0  0  0  0  0  0  0  0
   33.0388   35.6797   56.7915 H   0  0  0  0  0  0  0  0  0  0  0  0
   30.1370   36.7361   62.7852 H   0  0  0  0  0  0  0  0  0  0  0  0
   29.1910   35.0829   64.3408 H   0  0  0  0  0  0  0  0  0  0  0  0
  1  2  1  0  0  0  0
  1 22  1  0  0  0  0
  1 23  1  0  0  0  0
  1 24  1  0  0  0  0
  2  3  1  0  0  0  0
  3 21  2  0  0  0  0
  3  4  1  0  0  0  0
  4  5  2  0  0  0  0
  4 25  1  0  0  0  0
  5  6  1  0  0  0  0
  5 26  1  0  0  0  0
  6  7  1  0  0  0  0
  6 20  2  0  0  0  0
  7 18  1  0  0  0  0
  7  8  2  0  0  0  0
  8  9  1  0  0  0  0
  8 27  1  0  0  0  0
  9 10  1  0  0  0  0
 10 17  2  0  0  0  0
 10 11  1  0  0  0  0
 11 12  2  0  0  0  0
 11 28  1  0  0  0  0
 12 13  1  0  0  0  0
 12 15  1  0  0  0  0
 13 14  1  0  0  0  0
 14 29  1  0  0  0  0
 14 30  1  0  0  0  0
 14 31  1  0  0  0  0
 15 16  2  0  0  0  0
 15 32  1  0  0  0  0
 16 17  1  0  0  0  0
 16 33  1  0  0  0  0
 17 18  1  0  0  0  0
 18 19  2  0  0  0  0
 20 21  1  0  0  0  0
 20 34  1  0  0  0  0
 21 35  1  0  0  0  0
M  END
$$$$
