ZINC000000035131      none
 OpenBabel11202420153D

 27 27  0  0  0  0  0  0  0  0999 V2000
   31.7779   36.2409   62.7153 C   0  0  0  0  0  0  0  0  0  0  0  0
   30.8999   36.8374   61.7057 N   0  0  0  0  0  0  0  0  0  0  0  0
   30.1347   38.0460   62.0220 C   0  0  0  0  0  0  0  0  0  0  0  0
   30.7724   36.1455   60.2065 S   0  0  0  0  0  0  0  0  0  0  0  0
   29.9807   37.0280   59.4232 O   0  0  0  0  0  0  0  0  0  0  0  0
   30.4349   34.7820   60.4214 O   0  0  0  0  0  0  0  0  0  0  0  0
   32.2853   36.1522   59.5332 N   0  0  0  0  0  0  0  0  0  0  0  0
   32.7036   37.2419   58.7663 C   0  0  0  0  0  0  0  0  0  0  0  0
   33.0636   37.0593   57.4362 C   0  0  0  0  0  0  0  0  0  0  0  0
   33.4769   38.1367   56.6768 C   0  0  0  0  0  0  0  0  0  0  0  0
   33.5396   39.3978   57.2378 C   0  0  0  0  0  0  0  0  0  0  0  0
   33.1756   39.5883   58.5653 C   0  0  0  0  0  0  0  0  0  0  0  0
   33.2341   40.8644   59.1300 N   0  0  0  0  0  0  0  0  0  0  0  0
   32.7598   38.5080   59.3311 C   0  0  0  0  0  0  0  0  0  0  0  0
   32.7748   36.6738   62.6315 H   0  0  0  0  0  0  0  0  0  0  0  0
   31.3772   36.4411   63.7092 H   0  0  0  0  0  0  0  0  0  0  0  0
   31.8349   35.1640   62.5568 H   0  0  0  0  0  0  0  0  0  0  0  0
   29.0697   37.8395   61.9170 H   0  0  0  0  0  0  0  0  0  0  0  0
   30.3463   38.3520   63.0466 H   0  0  0  0  0  0  0  0  0  0  0  0
   30.4191   38.8455   61.3379 H   0  0  0  0  0  0  0  0  0  0  0  0
   32.8810   35.3992   59.6716 H   0  0  0  0  0  0  0  0  0  0  0  0
   33.0197   36.0741   56.9959 H   0  0  0  0  0  0  0  0  0  0  0  0
   33.7562   37.9920   55.6436 H   0  0  0  0  0  0  0  0  0  0  0  0
   33.8677   40.2373   56.6427 H   0  0  0  0  0  0  0  0  0  0  0  0
   32.9841   40.9960   60.0579 H   0  0  0  0  0  0  0  0  0  0  0  0
   33.5248   41.6190   58.5944 H   0  0  0  0  0  0  0  0  0  0  0  0
   32.4803   38.6526   60.3641 H   0  0  0  0  0  0  0  0  0  0  0  0
  1  2  1  0  0  0  0
  1 15  1  0  0  0  0
  1 16  1  0  0  0  0
  1 17  1  0  0  0  0
  2  3  1  0  0  0  0
  2  4  1  0  0  0  0
  3 18  1  0  0  0  0
  3 19  1  0  0  0  0
  3 20  1  0  0  0  0
  4  5  2  0  0  0  0
  4  6  2  0  0  0  0
  4  7  1  0  0  0  0
  7  8  1  0  0  0  0
  7 21  1  0  0  0  0
  8 14  2  0  0  0  0
  8  9  1  0  0  0  0
  9 10  2  0  0  0  0
  9 22  1  0  0  0  0
 10 11  1  0  0  0  0
 10 23  1  0  0  0  0
 11 12  2  0  0  0  0
 11 24  1  0  0  0  0
 12 13  1  0  0  0  0
 12 14  1  0  0  0  0
 13 25  1  0  0  0  0
 13 26  1  0  0  0  0
 14 27  1  0  0  0  0
M  END
$$$$
