ZINC000000038362      none
 OpenBabel11202420153D

 39 41  0  0  0  0  0  0  0  0999 V2000
   35.3721   37.4864   51.9141 C   0  0  0  0  0  0  0  0  0  0  0  0
   34.8846   36.4346   52.7497 O   0  0  0  0  0  0  0  0  0  0  0  0
   34.4538   36.7824   53.9919 C   0  0  0  0  0  0  0  0  0  0  0  0
   34.5003   38.1082   54.3946 C   0  0  0  0  0  0  0  0  0  0  0  0
   34.0641   38.4653   55.6546 C   0  0  0  0  0  0  0  0  0  0  0  0
   33.5751   37.4925   56.5249 C   0  0  0  0  0  0  0  0  0  0  0  0
   33.1062   37.8754   57.8790 C   0  0  0  0  0  0  0  0  0  0  0  0
   33.1262   39.1466   58.3142 C   0  0  0  0  0  0  0  0  0  0  0  0
   32.4922   39.1790   59.9578 S   0  0  0  0  0  0  0  0  0  0  0  0
   32.2539   37.4352   59.9036 C   0  0  0  0  0  0  0  0  0  0  0  0
   31.7389   36.6655   60.9340 N   0  0  0  0  0  0  0  0  0  0  0  0
   30.2870   36.4896   60.7853 C   0  0  0  0  0  0  0  0  0  0  0  0
   29.7702   35.5863   61.9082 C   0  0  0  0  0  0  0  0  0  0  0  0
   30.1197   36.1576   63.1719 O   0  0  0  0  0  0  0  0  0  0  0  0
   31.5265   36.3424   63.3507 C   0  0  0  0  0  0  0  0  0  0  0  0
   32.0611   37.2534   62.2425 C   0  0  0  0  0  0  0  0  0  0  0  0
   32.6305   36.9838   58.7472 N   0  0  0  0  0  0  0  0  0  0  0  0
   33.5227   36.1602   56.1189 C   0  0  0  0  0  0  0  0  0  0  0  0
   33.9665   35.8065   54.8570 C   0  0  0  0  0  0  0  0  0  0  0  0
   33.9214   34.5066   54.4599 O   0  0  0  0  0  0  0  0  0  0  0  0
   32.7256   34.0670   53.8127 C   0  0  0  0  0  0  0  0  0  0  0  0
   34.5817   38.2202   51.7553 H   0  0  0  0  0  0  0  0  0  0  0  0
   36.2234   37.9678   52.3952 H   0  0  0  0  0  0  0  0  0  0  0  0
   35.6826   37.0736   50.9543 H   0  0  0  0  0  0  0  0  0  0  0  0
   34.8788   38.8630   53.7214 H   0  0  0  0  0  0  0  0  0  0  0  0
   34.1013   39.4987   55.9660 H   0  0  0  0  0  0  0  0  0  0  0  0
   33.4718   40.0019   57.7525 H   0  0  0  0  0  0  0  0  0  0  0  0
   29.7948   37.4604   60.8436 H   0  0  0  0  0  0  0  0  0  0  0  0
   30.0731   36.0297   59.8206 H   0  0  0  0  0  0  0  0  0  0  0  0
   30.2222   34.5985   61.8179 H   0  0  0  0  0  0  0  0  0  0  0  0
   28.6861   35.4985   61.8357 H   0  0  0  0  0  0  0  0  0  0  0  0
   32.0296   35.3767   63.3023 H   0  0  0  0  0  0  0  0  0  0  0  0
   31.7134   36.8019   64.3213 H   0  0  0  0  0  0  0  0  0  0  0  0
   33.1422   37.3510   62.3414 H   0  0  0  0  0  0  0  0  0  0  0  0
   31.5973   38.2365   62.3239 H   0  0  0  0  0  0  0  0  0  0  0  0
   33.1403   35.4048   56.7894 H   0  0  0  0  0  0  0  0  0  0  0  0
   32.8215   33.0138   53.5484 H   0  0  0  0  0  0  0  0  0  0  0  0
   32.5642   34.6550   52.9092 H   0  0  0  0  0  0  0  0  0  0  0  0
   31.8789   34.1968   54.4867 H   0  0  0  0  0  0  0  0  0  0  0  0
  1  2  1  0  0  0  0
  1 22  1  0  0  0  0
  1 23  1  0  0  0  0
  1 24  1  0  0  0  0
  2  3  1  0  0  0  0
  3 19  2  0  0  0  0
  3  4  1  0  0  0  0
  4  5  2  0  0  0  0
  4 25  1  0  0  0  0
  5  6  1  0  0  0  0
  5 26  1  0  0  0  0
  6  7  1  0  0  0  0
  6 18  2  0  0  0  0
  7 17  1  0  0  0  0
  7  8  2  0  0  0  0
  8  9  1  0  0  0  0
  8 27  1  0  0  0  0
  9 10  1  0  0  0  0
 10 11  1  0  0  0  0
 10 17  2  0  0  0  0
 11 16  1  0  0  0  0
 11 12  1  0  0  0  0
 12 13  1  0  0  0  0
 12 28  1  0  0  0  0
 12 29  1  0  0  0  0
 13 14  1  0  0  0  0
 13 30  1  0  0  0  0
 13 31  1  0  0  0  0
 14 15  1  0  0  0  0
 15 16  1  0  0  0  0
 15 32  1  0  0  0  0
 15 33  1  0  0  0  0
 16 34  1  0  0  0  0
 16 35  1  0  0  0  0
 18 19  1  0  0  0  0
 18 36  1  0  0  0  0
 19 20  1  0  0  0  0
 20 21  1  0  0  0  0
 21 37  1  0  0  0  0
 21 38  1  0  0  0  0
 21 39  1  0  0  0  0
M  END
$$$$
