ZINC000000027950      none
 OpenBabel11202420153D

 29 30  0  0  1  0  0  0  0  0999 V2000
   32.5180   38.4508   65.6650 C   0  0  0  0  0  0  0  0  0  0  0  0
   32.7876   36.9566   65.4764 C   0  0  0  0  0  0  0  0  0  0  0  0
   31.7969   36.3959   64.5750 O   0  0  0  0  0  0  0  0  0  0  0  0
   32.0898   36.4061   63.2651 C   0  0  0  0  0  0  0  0  0  0  0  0
   33.2403   36.3363   62.9028 O   0  0  0  0  0  0  0  0  0  0  0  0
   30.9836   36.5046   62.2464 C   0  0  1  0  0  0  0  0  0  0  0  0
   31.3311   35.7259   61.0039 C   0  0  0  0  0  0  0  0  0  0  0  0
   31.9809   36.2666   59.9730 C   0  0  0  0  0  0  0  0  0  0  0  0
   32.1855   35.0231   58.7420 S   0  0  0  0  0  0  0  0  0  0  0  0
   31.3667   33.8943   59.7311 C   0  0  0  0  0  0  0  0  0  0  0  0
   31.1186   32.5737   59.3910 N   0  0  0  0  0  0  0  0  0  0  0  0
   31.0117   34.4537   60.8459 N   0  0  0  0  0  0  0  0  0  0  0  0
   29.6449   36.0209   62.8411 C   0  0  0  0  0  0  0  0  0  0  0  0
   28.8701   37.2126   63.1456 O   0  0  0  0  0  0  0  0  0  0  0  0
   29.5581   38.3291   62.8704 C   0  0  0  0  0  0  0  0  0  0  0  0
   29.3251   39.4284   63.3148 O   0  0  0  0  0  0  0  0  0  0  0  0
   30.6775   37.9829   61.9074 C   0  0  0  0  0  0  0  0  0  0  0  0
   33.2616   38.8716   66.3417 H   0  0  0  0  0  0  0  0  0  0  0  0
   32.5775   38.9552   64.7007 H   0  0  0  0  0  0  0  0  0  0  0  0
   31.5227   38.5899   66.0871 H   0  0  0  0  0  0  0  0  0  0  0  0
   32.7282   36.4521   66.4408 H   0  0  0  0  0  0  0  0  0  0  0  0
   33.7830   36.8174   65.0544 H   0  0  0  0  0  0  0  0  0  0  0  0
   32.3235   37.2886   59.9050 H   0  0  0  0  0  0  0  0  0  0  0  0
   30.6461   31.9943   60.0090 H   0  0  0  0  0  0  0  0  0  0  0  0
   31.4174   32.2289   58.5351 H   0  0  0  0  0  0  0  0  0  0  0  0
   29.1142   35.4061   62.1142 H   0  0  0  0  0  0  0  0  0  0  0  0
   29.8257   35.4496   63.7516 H   0  0  0  0  0  0  0  0  0  0  0  0
   31.5507   38.6091   62.0903 H   0  0  0  0  0  0  0  0  0  0  0  0
   30.3416   38.0800   60.8751 H   0  0  0  0  0  0  0  0  0  0  0  0
  1  2  1  0  0  0  0
  1 18  1  0  0  0  0
  1 19  1  0  0  0  0
  1 20  1  0  0  0  0
  2  3  1  0  0  0  0
  2 21  1  0  0  0  0
  2 22  1  0  0  0  0
  3  4  1  0  0  0  0
  4  5  2  0  0  0  0
  6  4  1  1  0  0  0
  6 17  1  0  0  0  0
  6  7  1  0  0  0  0
  6 13  1  0  0  0  0
  7 12  1  0  0  0  0
  7  8  2  0  0  0  0
  8  9  1  0  0  0  0
  8 23  1  0  0  0  0
  9 10  1  0  0  0  0
 10 11  1  0  0  0  0
 10 12  2  0  0  0  0
 11 24  1  0  0  0  0
 11 25  1  0  0  0  0
 13 14  1  0  0  0  0
 13 26  1  0  0  0  0
 13 27  1  0  0  0  0
 14 15  1  0  0  0  0
 15 16  2  0  0  0  0
 15 17  1  0  0  0  0
 17 28  1  0  0  0  0
 17 29  1  0  0  0  0
M  END
$$$$
