ZINC000000037562      none
 OpenBabel11202420153D

 33 34  0  0  0  0  0  0  0  0999 V2000
   30.5603   37.5349   64.5278 C   0  0  0  0  0  0  0  0  0  0  0  0
   30.8657   36.9862   63.1579 C   0  0  0  0  0  0  0  0  0  0  0  0
   30.3380   37.5981   62.0360 C   0  0  0  0  0  0  0  0  0  0  0  0
   30.6168   37.0974   60.7790 C   0  0  0  0  0  0  0  0  0  0  0  0
   31.4228   35.9763   60.6434 C   0  0  0  0  0  0  0  0  0  0  0  0
   31.6943   35.4787   59.4083 O   0  0  0  0  0  0  0  0  0  0  0  0
   31.9227   34.0713   59.3117 C   0  0  0  0  0  0  0  0  0  0  0  0
   32.2058   33.7056   57.8775 C   0  0  0  0  0  0  0  0  0  0  0  0
   31.2939   33.4031   57.1374 O   0  0  0  0  0  0  0  0  0  0  0  0
   33.4725   33.7149   57.4171 N   0  0  0  0  0  0  0  0  0  0  0  0
   33.7354   33.3754   56.0854 C   0  0  0  0  0  0  0  0  0  0  0  0
   32.7848   33.6237   55.1034 C   0  0  0  0  0  0  0  0  0  0  0  0
   33.0488   33.2942   53.7884 C   0  0  0  0  0  0  0  0  0  0  0  0
   34.2530   32.7053   53.4496 C   0  0  0  0  0  0  0  0  0  0  0  0
   35.2010   32.4503   54.4264 C   0  0  0  0  0  0  0  0  0  0  0  0
   36.3771   31.8753   54.0923 F   0  0  0  0  0  0  0  0  0  0  0  0
   34.9444   32.7846   55.7441 C   0  0  0  0  0  0  0  0  0  0  0  0
   31.9549   35.3670   61.7705 C   0  0  0  0  0  0  0  0  0  0  0  0
   31.6735   35.8720   63.0251 C   0  0  0  0  0  0  0  0  0  0  0  0
   29.6592   37.0607   64.9166 H   0  0  0  0  0  0  0  0  0  0  0  0
   31.3963   37.3292   65.1963 H   0  0  0  0  0  0  0  0  0  0  0  0
   30.4046   38.6117   64.4615 H   0  0  0  0  0  0  0  0  0  0  0  0
   29.7070   38.4682   62.1423 H   0  0  0  0  0  0  0  0  0  0  0  0
   30.2041   37.5755   59.9030 H   0  0  0  0  0  0  0  0  0  0  0  0
   32.7766   33.7984   59.9317 H   0  0  0  0  0  0  0  0  0  0  0  0
   31.0380   33.5353   59.6554 H   0  0  0  0  0  0  0  0  0  0  0  0
   34.2018   33.9568   58.0089 H   0  0  0  0  0  0  0  0  0  0  0  0
   31.8417   34.0788   55.3674 H   0  0  0  0  0  0  0  0  0  0  0  0
   32.3115   33.4921   53.0246 H   0  0  0  0  0  0  0  0  0  0  0  0
   34.4548   32.4442   52.4212 H   0  0  0  0  0  0  0  0  0  0  0  0
   35.6836   32.5866   56.5061 H   0  0  0  0  0  0  0  0  0  0  0  0
   32.5854   34.4962   61.6673 H   0  0  0  0  0  0  0  0  0  0  0  0
   32.0844   35.3957   63.9030 H   0  0  0  0  0  0  0  0  0  0  0  0
  1  2  1  0  0  0  0
  1 20  1  0  0  0  0
  1 21  1  0  0  0  0
  1 22  1  0  0  0  0
  2 19  2  0  0  0  0
  2  3  1  0  0  0  0
  3  4  2  0  0  0  0
  3 23  1  0  0  0  0
  4  5  1  0  0  0  0
  4 24  1  0  0  0  0
  5  6  1  0  0  0  0
  5 18  2  0  0  0  0
  6  7  1  0  0  0  0
  7  8  1  0  0  0  0
  7 25  1  0  0  0  0
  7 26  1  0  0  0  0
  8  9  2  0  0  0  0
  8 10  1  0  0  0  0
 10 11  1  0  0  0  0
 10 27  1  0  0  0  0
 11 17  2  0  0  0  0
 11 12  1  0  0  0  0
 12 13  2  0  0  0  0
 12 28  1  0  0  0  0
 13 14  1  0  0  0  0
 13 29  1  0  0  0  0
 14 15  2  0  0  0  0
 14 30  1  0  0  0  0
 15 16  1  0  0  0  0
 15 17  1  0  0  0  0
 17 31  1  0  0  0  0
 18 19  1  0  0  0  0
 18 32  1  0  0  0  0
 19 33  1  0  0  0  0
M  END
$$$$
