ZINC000000048744      none
 OpenBabel11202420153D

 50 53  0  0  0  0  0  0  0  0999 V2000
   32.9449   35.0495   71.5519 C   0  0  0  0  0  0  0  0  0  0  0  0
   32.6774   35.4753   70.1717 N   0  0  0  0  0  0  0  0  0  0  0  0
   33.3565   36.7434   69.8708 C   0  0  0  0  0  0  0  0  0  0  0  0
   33.1187   37.1109   68.4043 C   0  0  0  0  0  0  0  0  0  0  0  0
   31.6742   37.2189   68.1569 N   0  0  0  0  0  0  0  0  0  0  0  0
   31.4217   37.6208   66.8539 C   0  0  0  0  0  0  0  0  0  0  0  0
   31.2778   36.7175   65.9066 N   0  0  0  0  0  0  0  0  0  0  0  0
   31.0337   37.1064   64.6465 C   0  0  0  0  0  0  0  0  0  0  0  0
   30.8759   36.1624   63.6191 C   0  0  0  0  0  0  0  0  0  0  0  0
   30.6281   36.5824   62.3472 C   0  0  0  0  0  0  0  0  0  0  0  0
   30.5290   37.9387   62.0485 C   0  0  0  0  0  0  0  0  0  0  0  0
   30.6771   38.8816   63.0203 C   0  0  0  0  0  0  0  0  0  0  0  0
   30.9324   38.4852   64.3429 C   0  0  0  0  0  0  0  0  0  0  0  0
   31.0809   39.3949   65.3172 N   0  0  0  0  0  0  0  0  0  0  0  0
   31.3146   38.9995   66.5513 C   0  0  0  0  0  0  0  0  0  0  0  0
   31.4627   39.9399   67.5599 N   0  0  0  0  0  0  0  0  0  0  0  0
   30.1865   40.1795   68.2482 C   0  0  0  0  0  0  0  0  0  0  0  0
   30.4084   41.1605   69.4017 C   0  0  0  0  0  0  0  0  0  0  0  0
   30.9628   42.4152   68.8745 N   0  0  0  0  0  0  0  0  0  0  0  0
   31.1197   43.4114   69.9428 C   0  0  0  0  0  0  0  0  0  0  0  0
   32.2390   42.1757   68.1864 C   0  0  0  0  0  0  0  0  0  0  0  0
   32.0171   41.1947   67.0327 C   0  0  0  0  0  0  0  0  0  0  0  0
   30.9951   35.9508   68.4578 C   0  0  0  0  0  0  0  0  0  0  0  0
   31.2328   35.5832   69.9244 C   0  0  0  0  0  0  0  0  0  0  0  0
   32.5850   35.8112   72.2434 H   0  0  0  0  0  0  0  0  0  0  0  0
   32.4305   34.1086   71.7480 H   0  0  0  0  0  0  0  0  0  0  0  0
   34.0176   34.9124   71.6885 H   0  0  0  0  0  0  0  0  0  0  0  0
   34.4262   36.6343   70.0496 H   0  0  0  0  0  0  0  0  0  0  0  0
   32.9587   37.5300   70.5119 H   0  0  0  0  0  0  0  0  0  0  0  0
   33.5973   38.0657   68.1864 H   0  0  0  0  0  0  0  0  0  0  0  0
   33.5411   36.3376   67.7625 H   0  0  0  0  0  0  0  0  0  0  0  0
   30.9503   35.1072   63.8366 H   0  0  0  0  0  0  0  0  0  0  0  0
   30.5073   35.8533   61.5596 H   0  0  0  0  0  0  0  0  0  0  0  0
   30.3323   38.2474   61.0324 H   0  0  0  0  0  0  0  0  0  0  0  0
   30.5980   39.9303   62.7745 H   0  0  0  0  0  0  0  0  0  0  0  0
   29.4680   40.6011   67.5453 H   0  0  0  0  0  0  0  0  0  0  0  0
   29.8025   39.2379   68.6404 H   0  0  0  0  0  0  0  0  0  0  0  0
   31.1063   40.7273   70.1183 H   0  0  0  0  0  0  0  0  0  0  0  0
   29.4579   41.3621   69.8956 H   0  0  0  0  0  0  0  0  0  0  0  0
   31.4678   44.3514   69.5149 H   0  0  0  0  0  0  0  0  0  0  0  0
   30.1605   43.5696   70.4357 H   0  0  0  0  0  0  0  0  0  0  0  0
   31.8473   43.0519   70.6706 H   0  0  0  0  0  0  0  0  0  0  0  0
   32.9576   41.7540   68.8891 H   0  0  0  0  0  0  0  0  0  0  0  0
   32.6235   43.1172   67.7942 H   0  0  0  0  0  0  0  0  0  0  0  0
   32.9676   40.9930   66.5389 H   0  0  0  0  0  0  0  0  0  0  0  0
   31.3192   41.6279   66.3162 H   0  0  0  0  0  0  0  0  0  0  0  0
   29.9254   36.0598   68.2790 H   0  0  0  0  0  0  0  0  0  0  0  0
   31.3930   35.1641   67.8168 H   0  0  0  0  0  0  0  0  0  0  0  0
   30.8108   36.3567   70.5661 H   0  0  0  0  0  0  0  0  0  0  0  0
   30.7539   34.6287   70.1423 H   0  0  0  0  0  0  0  0  0  0  0  0
  1  2  1  0  0  0  0
  1 25  1  0  0  0  0
  1 26  1  0  0  0  0
  1 27  1  0  0  0  0
  2 24  1  0  0  0  0
  2  3  1  0  0  0  0
  3  4  1  0  0  0  0
  3 28  1  0  0  0  0
  3 29  1  0  0  0  0
  4  5  1  0  0  0  0
  4 30  1  0  0  0  0
  4 31  1  0  0  0  0
  5  6  1  0  0  0  0
  5 23  1  0  0  0  0
  6 15  2  0  0  0  0
  6  7  1  0  0  0  0
  7  8  2  0  0  0  0
  8 13  1  0  0  0  0
  8  9  1  0  0  0  0
  9 10  2  0  0  0  0
  9 32  1  0  0  0  0
 10 11  1  0  0  0  0
 10 33  1  0  0  0  0
 11 12  2  0  0  0  0
 11 34  1  0  0  0  0
 12 13  1  0  0  0  0
 12 35  1  0  0  0  0
 13 14  2  0  0  0  0
 14 15  1  0  0  0  0
 15 16  1  0  0  0  0
 16 22  1  0  0  0  0
 16 17  1  0  0  0  0
 17 18  1  0  0  0  0
 17 36  1  0  0  0  0
 17 37  1  0  0  0  0
 18 19  1  0  0  0  0
 18 38  1  0  0  0  0
 18 39  1  0  0  0  0
 19 20  1  0  0  0  0
 19 21  1  0  0  0  0
 20 40  1  0  0  0  0
 20 41  1  0  0  0  0
 20 42  1  0  0  0  0
 21 22  1  0  0  0  0
 21 43  1  0  0  0  0
 21 44  1  0  0  0  0
 22 45  1  0  0  0  0
 22 46  1  0  0  0  0
 23 24  1  0  0  0  0
 23 47  1  0  0  0  0
 23 48  1  0  0  0  0
 24 49  1  0  0  0  0
 24 50  1  0  0  0  0
M  END
$$$$
