ZINC000000022608      none
 OpenBabel11202420153D

 43 45  0  0  0  0  0  0  0  0999 V2000
   30.3621   37.0192   59.5057 C   0  0  0  0  0  0  0  0  0  0  0  0
   30.7139   37.1360   60.9663 C   0  0  0  0  0  0  0  0  0  0  0  0
   30.2591   36.3855   61.9385 N   0  0  0  0  0  0  0  0  0  0  0  0
   30.8432   36.8555   63.0640 C   0  0  0  0  0  0  0  0  0  0  0  0
   30.6469   36.3377   64.4403 C   0  0  0  0  0  0  0  0  0  0  0  0
   29.7896   35.2626   64.6704 C   0  0  0  0  0  0  0  0  0  0  0  0
   29.6110   34.7798   65.9469 C   0  0  0  0  0  0  0  0  0  0  0  0
   28.6828   33.6166   66.1845 C   0  0  0  0  0  0  0  0  0  0  0  0
   28.0757   33.1683   64.8537 C   0  0  0  0  0  0  0  0  0  0  0  0
   29.4662   32.4574   66.8040 C   0  0  0  0  0  0  0  0  0  0  0  0
   27.5643   34.0430   67.1375 C   0  0  0  0  0  0  0  0  0  0  0  0
   30.2833   35.3608   67.0216 C   0  0  0  0  0  0  0  0  0  0  0  0
   31.1347   36.4343   66.7852 C   0  0  0  0  0  0  0  0  0  0  0  0
   31.3183   36.9232   65.5134 C   0  0  0  0  0  0  0  0  0  0  0  0
   31.6905   36.8646   68.1293 C   0  0  0  0  0  0  0  0  0  0  0  0
   31.6109   38.3833   68.2974 C   0  0  0  0  0  0  0  0  0  0  0  0
   33.1285   36.3718   68.3034 C   0  0  0  0  0  0  0  0  0  0  0  0
   30.7375   36.1486   69.1151 C   0  0  0  0  0  0  0  0  0  0  0  0
   30.2586   35.0346   68.3428 O   0  0  0  0  0  0  0  0  0  0  0  0
   31.6179   37.8485   62.7111 N   0  0  0  0  0  0  0  0  0  0  0  0
   31.5542   38.0208   61.5121 O   0  0  0  0  0  0  0  0  0  0  0  0
   30.9027   37.7779   58.9399 H   0  0  0  0  0  0  0  0  0  0  0  0
   30.6395   36.0294   59.1432 H   0  0  0  0  0  0  0  0  0  0  0  0
   29.2896   37.1656   59.3775 H   0  0  0  0  0  0  0  0  0  0  0  0
   29.2642   34.8069   63.8442 H   0  0  0  0  0  0  0  0  0  0  0  0
   28.8725   32.8645   64.1748 H   0  0  0  0  0  0  0  0  0  0  0  0
   27.4043   32.3270   65.0256 H   0  0  0  0  0  0  0  0  0  0  0  0
   27.5177   33.9942   64.4125 H   0  0  0  0  0  0  0  0  0  0  0  0
   29.8987   32.7767   67.7521 H   0  0  0  0  0  0  0  0  0  0  0  0
   28.7949   31.6160   66.9758 H   0  0  0  0  0  0  0  0  0  0  0  0
   30.2631   32.1537   66.1251 H   0  0  0  0  0  0  0  0  0  0  0  0
   27.0063   34.8688   66.6963 H   0  0  0  0  0  0  0  0  0  0  0  0
   26.8931   33.2016   67.3094 H   0  0  0  0  0  0  0  0  0  0  0  0
   27.9969   34.3623   68.0857 H   0  0  0  0  0  0  0  0  0  0  0  0
   31.9848   37.7562   65.3450 H   0  0  0  0  0  0  0  0  0  0  0  0
   31.9189   38.6536   69.3075 H   0  0  0  0  0  0  0  0  0  0  0  0
   32.2712   38.8639   67.5753 H   0  0  0  0  0  0  0  0  0  0  0  0
   30.5861   38.7143   68.1292 H   0  0  0  0  0  0  0  0  0  0  0  0
   33.1658   35.2950   68.1395 H   0  0  0  0  0  0  0  0  0  0  0  0
   33.7739   36.8720   67.5814 H   0  0  0  0  0  0  0  0  0  0  0  0
   33.4701   36.5976   69.3136 H   0  0  0  0  0  0  0  0  0  0  0  0
   29.9138   36.8032   69.4002 H   0  0  0  0  0  0  0  0  0  0  0  0
   31.2803   35.8036   69.9951 H   0  0  0  0  0  0  0  0  0  0  0  0
  1  2  1  0  0  0  0
  1 22  1  0  0  0  0
  1 23  1  0  0  0  0
  1 24  1  0  0  0  0
  2 21  1  0  0  0  0
  2  3  2  0  0  0  0
  3  4  1  0  0  0  0
  4  5  1  0  0  0  0
  4 20  2  0  0  0  0
  5 14  2  0  0  0  0
  5  6  1  0  0  0  0
  6  7  2  0  0  0  0
  6 25  1  0  0  0  0
  7  8  1  0  0  0  0
  7 12  1  0  0  0  0
  8  9  1  0  0  0  0
  8 10  1  0  0  0  0
  8 11  1  0  0  0  0
  9 26  1  0  0  0  0
  9 27  1  0  0  0  0
  9 28  1  0  0  0  0
 10 29  1  0  0  0  0
 10 30  1  0  0  0  0
 10 31  1  0  0  0  0
 11 32  1  0  0  0  0
 11 33  1  0  0  0  0
 11 34  1  0  0  0  0
 12 19  1  0  0  0  0
 12 13  2  0  0  0  0
 13 14  1  0  0  0  0
 13 15  1  0  0  0  0
 14 35  1  0  0  0  0
 15 16  1  0  0  0  0
 15 17  1  0  0  0  0
 15 18  1  0  0  0  0
 16 36  1  0  0  0  0
 16 37  1  0  0  0  0
 16 38  1  0  0  0  0
 17 39  1  0  0  0  0
 17 40  1  0  0  0  0
 17 41  1  0  0  0  0
 18 19  1  0  0  0  0
 18 42  1  0  0  0  0
 18 43  1  0  0  0  0
 20 21  1  0  0  0  0
M  END
$$$$
