ZINC000000024492      none
 OpenBabel11202420153D

 36 37  0  0  1  0  0  0  0  0999 V2000
   33.3180   41.2776   66.9862 N   0  0  0  0  0  0  0  0  0  0  0  0
   33.2875   40.0255   66.4885 C   0  0  0  0  0  0  0  0  0  0  0  0
   34.2791   39.3237   66.5465 O   0  0  0  0  0  0  0  0  0  0  0  0
   32.0510   39.5047   65.8797 C   0  0  0  0  0  0  0  0  0  0  0  0
   31.8769   38.2618   65.3454 C   0  0  0  0  0  0  0  0  0  0  0  0
   30.5997   38.2009   64.9004 N   0  0  0  0  0  0  0  0  0  0  0  0
   29.9655   37.0517   64.2497 C   0  0  2  0  0  0  0  0  0  0  0  0
   28.9327   37.2979   64.0034 H   0  0  0  0  0  0  0  0  0  0  0  0
   29.9912   35.8508   65.1975 C   0  0  0  0  0  0  0  0  0  0  0  0
   29.3726   34.7298   64.5629 O   0  0  0  0  0  0  0  0  0  0  0  0
   30.7271   36.7066   62.9684 C   0  0  0  0  0  0  0  0  0  0  0  0
   30.7014   37.9074   62.0207 C   0  0  0  0  0  0  0  0  0  0  0  0
   31.4516   37.5675   60.7587 C   0  0  0  0  0  0  0  0  0  0  0  0
   32.0961   38.5629   60.0483 C   0  0  0  0  0  0  0  0  0  0  0  0
   32.7883   38.2503   58.8933 C   0  0  0  0  0  0  0  0  0  0  0  0
   32.8273   36.9439   58.4430 C   0  0  0  0  0  0  0  0  0  0  0  0
   32.1784   35.9493   59.1506 C   0  0  0  0  0  0  0  0  0  0  0  0
   31.4905   36.2611   60.3084 C   0  0  0  0  0  0  0  0  0  0  0  0
   30.0118   39.3966   65.1652 C   0  0  0  0  0  0  0  0  0  0  0  0
   30.8756   40.1724   65.7538 N   0  0  0  0  0  0  0  0  0  0  0  0
   34.1309   41.6191   67.3906 H   0  0  0  0  0  0  0  0  0  0  0  0
   32.5271   41.8374   66.9400 H   0  0  0  0  0  0  0  0  0  0  0  0
   32.6160   37.4765   65.2886 H   0  0  0  0  0  0  0  0  0  0  0  0
   31.0242   35.6044   65.4438 H   0  0  0  0  0  0  0  0  0  0  0  0
   29.4488   36.0967   66.1104 H   0  0  0  0  0  0  0  0  0  0  0  0
   29.3533   33.9309   65.1074 H   0  0  0  0  0  0  0  0  0  0  0  0
   31.7598   36.4602   63.2150 H   0  0  0  0  0  0  0  0  0  0  0  0
   30.2551   35.8515   62.4844 H   0  0  0  0  0  0  0  0  0  0  0  0
   29.6686   38.1538   61.7742 H   0  0  0  0  0  0  0  0  0  0  0  0
   31.1733   38.7624   62.5048 H   0  0  0  0  0  0  0  0  0  0  0  0
   32.0620   39.5842   60.3978 H   0  0  0  0  0  0  0  0  0  0  0  0
   33.2950   39.0274   58.3404 H   0  0  0  0  0  0  0  0  0  0  0  0
   33.3643   36.7004   57.5382 H   0  0  0  0  0  0  0  0  0  0  0  0
   32.2085   34.9287   58.7985 H   0  0  0  0  0  0  0  0  0  0  0  0
   30.9833   35.4841   60.8610 H   0  0  0  0  0  0  0  0  0  0  0  0
   28.9912   39.6595   64.9295 H   0  0  0  0  0  0  0  0  0  0  0  0
  1  2  1  0  0  0  0
  1 21  1  0  0  0  0
  1 22  1  0  0  0  0
  2  3  2  0  0  0  0
  2  4  1  0  0  0  0
  4 20  1  0  0  0  0
  4  5  2  0  0  0  0
  5  6  1  0  0  0  0
  5 23  1  0  0  0  0
  6  7  1  0  0  0  0
  6 19  1  0  0  0  0
  7  8  1  6  0  0  0
  7  9  1  0  0  0  0
  7 11  1  0  0  0  0
  9 10  1  0  0  0  0
  9 24  1  0  0  0  0
  9 25  1  0  0  0  0
 10 26  1  0  0  0  0
 11 12  1  0  0  0  0
 11 27  1  0  0  0  0
 11 28  1  0  0  0  0
 12 13  1  0  0  0  0
 12 29  1  0  0  0  0
 12 30  1  0  0  0  0
 13 18  2  0  0  0  0
 13 14  1  0  0  0  0
 14 15  2  0  0  0  0
 14 31  1  0  0  0  0
 15 16  1  0  0  0  0
 15 32  1  0  0  0  0
 16 17  2  0  0  0  0
 16 33  1  0  0  0  0
 17 18  1  0  0  0  0
 17 34  1  0  0  0  0
 18 35  1  0  0  0  0
 19 20  2  0  0  0  0
 19 36  1  0  0  0  0
M  END
$$$$
