ZINC000000037565      none
 OpenBabel11202420153D

 34 35  0  0  0  0  0  0  0  0999 V2000
   33.3470   36.9401   56.0053 C   0  0  0  0  0  0  0  0  0  0  0  0
   33.0051   37.2180   57.4465 C   0  0  0  0  0  0  0  0  0  0  0  0
   32.4234   36.2311   58.2205 C   0  0  0  0  0  0  0  0  0  0  0  0
   32.1143   36.4816   59.5435 C   0  0  0  0  0  0  0  0  0  0  0  0
   32.3826   37.7266   60.0935 C   0  0  0  0  0  0  0  0  0  0  0  0
   32.0790   37.9757   61.3945 O   0  0  0  0  0  0  0  0  0  0  0  0
   32.1237   36.8670   62.2949 C   0  0  0  0  0  0  0  0  0  0  0  0
   32.4957   37.3529   63.6721 C   0  0  0  0  0  0  0  0  0  0  0  0
   33.4969   36.9339   64.2131 O   0  0  0  0  0  0  0  0  0  0  0  0
   31.7155   38.2532   64.3026 N   0  0  0  0  0  0  0  0  0  0  0  0
   30.4993   38.7805   63.6640 C   0  0  0  0  0  0  0  0  0  0  0  0
   29.3354   38.6361   64.6575 C   0  0  0  0  0  0  0  0  0  0  0  0
   29.7061   39.2304   65.9038 O   0  0  0  0  0  0  0  0  0  0  0  0
   30.8212   38.6039   66.5422 C   0  0  0  0  0  0  0  0  0  0  0  0
   32.0584   38.7425   65.6474 C   0  0  0  0  0  0  0  0  0  0  0  0
   32.9611   38.7170   59.3132 C   0  0  0  0  0  0  0  0  0  0  0  0
   33.2683   38.4614   57.9908 C   0  0  0  0  0  0  0  0  0  0  0  0
   32.4973   37.1995   55.3738 H   0  0  0  0  0  0  0  0  0  0  0  0
   34.2111   37.5375   55.7152 H   0  0  0  0  0  0  0  0  0  0  0  0
   33.5797   35.8820   55.8847 H   0  0  0  0  0  0  0  0  0  0  0  0
   32.2146   35.2620   57.7919 H   0  0  0  0  0  0  0  0  0  0  0  0
   31.6643   35.7088   60.1491 H   0  0  0  0  0  0  0  0  0  0  0  0
   31.1450   36.3884   62.3307 H   0  0  0  0  0  0  0  0  0  0  0  0
   32.8672   36.1485   61.9501 H   0  0  0  0  0  0  0  0  0  0  0  0
   30.6428   39.8314   63.4125 H   0  0  0  0  0  0  0  0  0  0  0  0
   30.2837   38.2122   62.7592 H   0  0  0  0  0  0  0  0  0  0  0  0
   29.1121   37.5800   64.8099 H   0  0  0  0  0  0  0  0  0  0  0  0
   28.4542   39.1409   64.2613 H   0  0  0  0  0  0  0  0  0  0  0  0
   30.6036   37.5478   66.7013 H   0  0  0  0  0  0  0  0  0  0  0  0
   31.0102   39.0854   67.5016 H   0  0  0  0  0  0  0  0  0  0  0  0
   32.8758   38.1488   66.0567 H   0  0  0  0  0  0  0  0  0  0  0  0
   32.3561   39.7895   65.5922 H   0  0  0  0  0  0  0  0  0  0  0  0
   33.1706   39.6872   59.7390 H   0  0  0  0  0  0  0  0  0  0  0  0
   33.7190   39.2321   57.3829 H   0  0  0  0  0  0  0  0  0  0  0  0
  1  2  1  0  0  0  0
  1 18  1  0  0  0  0
  1 19  1  0  0  0  0
  1 20  1  0  0  0  0
  2 17  2  0  0  0  0
  2  3  1  0  0  0  0
  3  4  2  0  0  0  0
  3 21  1  0  0  0  0
  4  5  1  0  0  0  0
  4 22  1  0  0  0  0
  5  6  1  0  0  0  0
  5 16  2  0  0  0  0
  6  7  1  0  0  0  0
  7  8  1  0  0  0  0
  7 23  1  0  0  0  0
  7 24  1  0  0  0  0
  8  9  2  0  0  0  0
  8 10  1  0  0  0  0
 10 15  1  0  0  0  0
 10 11  1  0  0  0  0
 11 12  1  0  0  0  0
 11 25  1  0  0  0  0
 11 26  1  0  0  0  0
 12 13  1  0  0  0  0
 12 27  1  0  0  0  0
 12 28  1  0  0  0  0
 13 14  1  0  0  0  0
 14 15  1  0  0  0  0
 14 29  1  0  0  0  0
 14 30  1  0  0  0  0
 15 31  1  0  0  0  0
 15 32  1  0  0  0  0
 16 17  1  0  0  0  0
 16 33  1  0  0  0  0
 17 34  1  0  0  0  0
M  END
$$$$
