ZINC000000043144      none
 OpenBabel11202420153D

 39 41  0  0  1  0  0  0  0  0999 V2000
   30.8588   38.8563   61.4476 O   0  0  0  0  0  0  0  0  0  0  0  0
   31.0642   38.0139   62.2957 C   0  0  0  0  0  0  0  0  0  0  0  0
   31.6184   36.8341   61.9533 N   0  0  0  0  0  0  0  0  0  0  0  0
   31.9567   36.5809   60.6194 C   0  0  0  0  0  0  0  0  0  0  0  0
   31.9324   35.2814   60.1299 C   0  0  0  0  0  0  0  0  0  0  0  0
   32.2625   35.0353   58.8118 C   0  0  0  0  0  0  0  0  0  0  0  0
   32.6271   36.0801   57.9821 C   0  0  0  0  0  0  0  0  0  0  0  0
   32.6570   37.3743   58.4677 C   0  0  0  0  0  0  0  0  0  0  0  0
   33.0477   38.4895   57.5763 N   0  0  0  0  0  0  0  0  0  0  0  0
   33.3425   38.2669   56.4157 O   0  0  0  0  0  0  0  0  0  0  0  0
   33.0743   39.6298   58.0034 O   0  0  0  0  0  0  0  0  0  0  0  0
   32.3232   37.6277   59.7839 C   0  0  0  0  0  0  0  0  0  0  0  0
   30.6998   38.2866   63.7324 C   0  0  2  0  0  0  0  0  0  0  0  0
   30.2647   39.2800   63.8406 H   0  0  0  0  0  0  0  0  0  0  0  0
   31.9273   38.1163   64.6574 C   0  0  0  0  0  0  0  0  0  0  0  0
   31.8377   36.6838   65.1354 C   0  0  0  0  0  0  0  0  0  0  0  0
   32.7439   36.0664   65.6537 O   0  0  0  0  0  0  0  0  0  0  0  0
   30.6085   36.1938   64.8993 N   0  0  0  0  0  0  0  0  0  0  0  0
   30.2039   34.8916   65.2136 C   0  0  0  0  0  0  0  0  0  0  0  0
   29.7654   34.0378   64.2098 C   0  0  0  0  0  0  0  0  0  0  0  0
   29.3672   32.7531   64.5232 C   0  0  0  0  0  0  0  0  0  0  0  0
   29.4047   32.3165   65.8347 C   0  0  0  0  0  0  0  0  0  0  0  0
   29.8407   33.1642   66.8366 C   0  0  0  0  0  0  0  0  0  0  0  0
   30.2404   34.4502   66.5297 C   0  0  0  0  0  0  0  0  0  0  0  0
   29.7433   37.2019   64.2755 C   0  0  0  0  0  0  0  0  0  0  0  0
   31.7827   36.1605   62.6317 H   0  0  0  0  0  0  0  0  0  0  0  0
   31.6521   34.4645   60.7785 H   0  0  0  0  0  0  0  0  0  0  0  0
   32.2398   34.0256   58.4294 H   0  0  0  0  0  0  0  0  0  0  0  0
   32.8893   35.8845   56.9528 H   0  0  0  0  0  0  0  0  0  0  0  0
   32.3467   38.6388   60.1626 H   0  0  0  0  0  0  0  0  0  0  0  0
   32.8500   38.2785   64.1003 H   0  0  0  0  0  0  0  0  0  0  0  0
   31.8668   38.8029   65.5017 H   0  0  0  0  0  0  0  0  0  0  0  0
   29.7357   34.3785   63.1854 H   0  0  0  0  0  0  0  0  0  0  0  0
   29.0220   32.0901   63.7437 H   0  0  0  0  0  0  0  0  0  0  0  0
   29.0927   31.3114   66.0772 H   0  0  0  0  0  0  0  0  0  0  0  0
   29.8685   32.8204   67.8600 H   0  0  0  0  0  0  0  0  0  0  0  0
   30.5809   35.1116   67.3126 H   0  0  0  0  0  0  0  0  0  0  0  0
   29.1744   36.7575   63.4589 H   0  0  0  0  0  0  0  0  0  0  0  0
   29.0677   37.6296   65.0163 H   0  0  0  0  0  0  0  0  0  0  0  0
  1  2  2  0  0  0  0
  2  3  1  0  0  0  0
  2 13  1  0  0  0  0
  3  4  1  0  0  0  0
  3 26  1  0  0  0  0
  4 12  2  0  0  0  0
  4  5  1  0  0  0  0
  5  6  2  0  0  0  0
  5 27  1  0  0  0  0
  6  7  1  0  0  0  0
  6 28  1  0  0  0  0
  7  8  2  0  0  0  0
  7 29  1  0  0  0  0
  8  9  1  0  0  0  0
  8 12  1  0  0  0  0
  9 10  2  0  0  0  0
  9 11  2  0  0  0  0
 12 30  1  0  0  0  0
 13 14  1  1  0  0  0
 13 25  1  0  0  0  0
 13 15  1  0  0  0  0
 15 16  1  0  0  0  0
 15 31  1  0  0  0  0
 15 32  1  0  0  0  0
 16 17  2  0  0  0  0
 16 18  1  0  0  0  0
 18 19  1  0  0  0  0
 18 25  1  0  0  0  0
 19 24  2  0  0  0  0
 19 20  1  0  0  0  0
 20 21  2  0  0  0  0
 20 33  1  0  0  0  0
 21 22  1  0  0  0  0
 21 34  1  0  0  0  0
 22 23  2  0  0  0  0
 22 35  1  0  0  0  0
 23 24  1  0  0  0  0
 23 36  1  0  0  0  0
 24 37  1  0  0  0  0
 25 38  1  0  0  0  0
 25 39  1  0  0  0  0
M  END
$$$$
