ZINC000000025913      none
 OpenBabel11202420153D

 32 33  0  0  0  0  0  0  0  0999 V2000
   33.5728   37.0840   65.2991 C   0  0  0  0  0  0  0  0  0  0  0  0
   32.6961   36.4062   64.2440 C   0  0  0  0  0  0  0  0  0  0  0  0
   31.2316   36.4660   64.6829 C   0  0  0  0  0  0  0  0  0  0  0  0
   30.8051   37.9271   64.8384 C   0  0  0  0  0  0  0  0  0  0  0  0
   31.0703   35.7424   66.0212 C   0  0  0  0  0  0  0  0  0  0  0  0
   30.3922   35.8171   63.6726 N   0  0  0  0  0  0  0  0  0  0  0  0
   30.7732   35.8290   62.3512 C   0  0  0  0  0  0  0  0  0  0  0  0
   30.9552   34.6734   61.8022 N   0  0  0  0  0  0  0  0  0  0  0  0
   31.4223   34.5438   60.2109 S   0  0  0  0  0  0  0  0  0  0  0  0
   30.2564   34.2242   59.4639 O   0  0  0  0  0  0  0  0  0  0  0  0
   32.6077   33.7604   60.1903 O   0  0  0  0  0  0  0  0  0  0  0  0
   31.8866   36.1887   59.7581 C   0  0  0  0  0  0  0  0  0  0  0  0
   32.7306   36.7126   58.3200 S   0  0  0  0  0  0  0  0  0  0  0  0
   32.6691   38.3868   58.8574 C   0  0  0  0  0  0  0  0  0  0  0  0
   33.3217   39.7398   57.9873 Cl  0  0  0  0  0  0  0  0  0  0  0  0
   32.0457   38.4598   60.0348 C   0  0  0  0  0  0  0  0  0  0  0  0
   31.6016   37.2503   60.5540 C   0  0  0  0  0  0  0  0  0  0  0  0
   30.9135   37.0563   61.7803 N   0  0  0  0  0  0  0  0  0  0  0  0
   33.4578   36.5686   66.2526 H   0  0  0  0  0  0  0  0  0  0  0  0
   34.6161   37.0414   64.9865 H   0  0  0  0  0  0  0  0  0  0  0  0
   33.2687   38.1249   65.4098 H   0  0  0  0  0  0  0  0  0  0  0  0
   33.0000   35.3653   64.1333 H   0  0  0  0  0  0  0  0  0  0  0  0
   32.8110   36.9216   63.2904 H   0  0  0  0  0  0  0  0  0  0  0  0
   29.7617   37.9696   65.1510 H   0  0  0  0  0  0  0  0  0  0  0  0
   31.4296   38.4099   65.5901 H   0  0  0  0  0  0  0  0  0  0  0  0
   30.9199   38.4426   63.8849 H   0  0  0  0  0  0  0  0  0  0  0  0
   31.3743   34.7014   65.9104 H   0  0  0  0  0  0  0  0  0  0  0  0
   31.6948   36.2252   66.7729 H   0  0  0  0  0  0  0  0  0  0  0  0
   30.0270   35.7849   66.3339 H   0  0  0  0  0  0  0  0  0  0  0  0
   29.5678   35.3791   63.9357 H   0  0  0  0  0  0  0  0  0  0  0  0
   31.8959   39.3972   60.5498 H   0  0  0  0  0  0  0  0  0  0  0  0
   30.5329   37.8270   62.2296 H   0  0  0  0  0  0  0  0  0  0  0  0
  1  2  1  0  0  0  0
  1 19  1  0  0  0  0
  1 20  1  0  0  0  0
  1 21  1  0  0  0  0
  2  3  1  0  0  0  0
  2 22  1  0  0  0  0
  2 23  1  0  0  0  0
  3  4  1  0  0  0  0
  3  5  1  0  0  0  0
  3  6  1  0  0  0  0
  4 24  1  0  0  0  0
  4 25  1  0  0  0  0
  4 26  1  0  0  0  0
  5 27  1  0  0  0  0
  5 28  1  0  0  0  0
  5 29  1  0  0  0  0
  6  7  1  0  0  0  0
  6 30  1  0  0  0  0
  7 18  1  0  0  0  0
  7  8  2  0  0  0  0
  8  9  1  0  0  0  0
  9 10  2  0  0  0  0
  9 11  2  0  0  0  0
  9 12  1  0  0  0  0
 12 17  2  0  0  0  0
 12 13  1  0  0  0  0
 13 14  1  0  0  0  0
 14 15  1  0  0  0  0
 14 16  2  0  0  0  0
 16 17  1  0  0  0  0
 16 31  1  0  0  0  0
 17 18  1  0  0  0  0
 18 32  1  0  0  0  0
M  END
$$$$
