ZINC000000048077      none
 OpenBabel11202420153D

 48 49  0  0  0  0  0  0  0  0999 V2000
   32.9835   35.5257   52.1807 C   0  0  0  0  0  0  0  0  0  0  0  0
   33.7017   36.7511   52.7495 C   0  0  0  0  0  0  0  0  0  0  0  0
   33.2114   37.0209   54.0893 O   0  0  0  0  0  0  0  0  0  0  0  0
   34.0732   37.5939   54.9523 C   0  0  0  0  0  0  0  0  0  0  0  0
   35.2034   37.8607   54.5950 O   0  0  0  0  0  0  0  0  0  0  0  0
   33.6445   37.8970   56.3303 C   0  0  0  0  0  0  0  0  0  0  0  0
   33.6681   39.2145   56.7975 C   0  0  0  0  0  0  0  0  0  0  0  0
   33.2678   39.4938   58.0845 C   0  0  0  0  0  0  0  0  0  0  0  0
   32.8399   38.4668   58.9202 C   0  0  0  0  0  0  0  0  0  0  0  0
   32.4350   38.7534   60.2231 N   0  0  0  0  0  0  0  0  0  0  0  0
   31.5021   37.9875   60.8228 C   0  0  0  0  0  0  0  0  0  0  0  0
   31.0146   37.0491   60.2289 O   0  0  0  0  0  0  0  0  0  0  0  0
   31.0646   38.2973   62.2312 C   0  0  0  0  0  0  0  0  0  0  0  0
   32.1906   38.2195   63.1077 O   0  0  0  0  0  0  0  0  0  0  0  0
   31.9482   37.8474   64.3921 C   0  0  0  0  0  0  0  0  0  0  0  0
   32.9146   37.1580   65.1100 C   0  0  0  0  0  0  0  0  0  0  0  0
   32.6676   36.7855   66.4172 C   0  0  0  0  0  0  0  0  0  0  0  0
   31.4546   37.0900   67.0066 C   0  0  0  0  0  0  0  0  0  0  0  0
   31.1857   36.6774   68.4309 C   0  0  0  0  0  0  0  0  0  0  0  0
   31.2827   35.1550   68.5479 C   0  0  0  0  0  0  0  0  0  0  0  0
   32.2193   37.3266   69.3537 C   0  0  0  0  0  0  0  0  0  0  0  0
   30.4876   37.7719   66.2913 C   0  0  0  0  0  0  0  0  0  0  0  0
   30.7317   38.1513   64.9855 C   0  0  0  0  0  0  0  0  0  0  0  0
   32.8205   37.1536   58.4604 C   0  0  0  0  0  0  0  0  0  0  0  0
   33.2140   36.8677   57.1726 C   0  0  0  0  0  0  0  0  0  0  0  0
   31.9112   35.7177   52.1435 H   0  0  0  0  0  0  0  0  0  0  0  0
   33.3516   35.3232   51.1750 H   0  0  0  0  0  0  0  0  0  0  0  0
   33.1763   34.6631   52.8186 H   0  0  0  0  0  0  0  0  0  0  0  0
   33.5090   37.6138   52.1115 H   0  0  0  0  0  0  0  0  0  0  0  0
   34.7740   36.5591   52.7868 H   0  0  0  0  0  0  0  0  0  0  0  0
   34.0005   40.0122   56.1496 H   0  0  0  0  0  0  0  0  0  0  0  0
   33.2861   40.5113   58.4464 H   0  0  0  0  0  0  0  0  0  0  0  0
   32.8249   39.5039   60.6981 H   0  0  0  0  0  0  0  0  0  0  0  0
   30.3100   37.5757   62.5443 H   0  0  0  0  0  0  0  0  0  0  0  0
   30.6441   39.3021   62.2684 H   0  0  0  0  0  0  0  0  0  0  0  0
   33.8607   36.9163   64.6487 H   0  0  0  0  0  0  0  0  0  0  0  0
   33.4212   36.2522   66.9778 H   0  0  0  0  0  0  0  0  0  0  0  0
   30.1861   37.0012   68.7204 H   0  0  0  0  0  0  0  0  0  0  0  0
   32.2824   34.8313   68.2582 H   0  0  0  0  0  0  0  0  0  0  0  0
   31.0882   34.8566   69.5780 H   0  0  0  0  0  0  0  0  0  0  0  0
   30.5464   34.6925   67.8904 H   0  0  0  0  0  0  0  0  0  0  0  0
   32.0247   37.0281   70.3838 H   0  0  0  0  0  0  0  0  0  0  0  0
   33.2189   37.0028   69.0641 H   0  0  0  0  0  0  0  0  0  0  0  0
   32.1502   38.4112   69.2704 H   0  0  0  0  0  0  0  0  0  0  0  0
   29.5405   38.0079   66.7538 H   0  0  0  0  0  0  0  0  0  0  0  0
   29.9758   38.6835   64.4273 H   0  0  0  0  0  0  0  0  0  0  0  0
   32.4922   36.3583   59.1131 H   0  0  0  0  0  0  0  0  0  0  0  0
   33.1949   35.8488   56.8152 H   0  0  0  0  0  0  0  0  0  0  0  0
  1  2  1  0  0  0  0
  1 26  1  0  0  0  0
  1 27  1  0  0  0  0
  1 28  1  0  0  0  0
  2  3  1  0  0  0  0
  2 29  1  0  0  0  0
  2 30  1  0  0  0  0
  3  4  1  0  0  0  0
  4  5  2  0  0  0  0
  4  6  1  0  0  0  0
  6 25  2  0  0  0  0
  6  7  1  0  0  0  0
  7  8  2  0  0  0  0
  7 31  1  0  0  0  0
  8  9  1  0  0  0  0
  8 32  1  0  0  0  0
  9 10  1  0  0  0  0
  9 24  2  0  0  0  0
 10 11  1  0  0  0  0
 10 33  1  0  0  0  0
 11 12  2  0  0  0  0
 11 13  1  0  0  0  0
 13 14  1  0  0  0  0
 13 34  1  0  0  0  0
 13 35  1  0  0  0  0
 14 15  1  0  0  0  0
 15 23  2  0  0  0  0
 15 16  1  0  0  0  0
 16 17  2  0  0  0  0
 16 36  1  0  0  0  0
 17 18  1  0  0  0  0
 17 37  1  0  0  0  0
 18 19  1  0  0  0  0
 18 22  2  0  0  0  0
 19 20  1  0  0  0  0
 19 21  1  0  0  0  0
 19 38  1  0  0  0  0
 20 39  1  0  0  0  0
 20 40  1  0  0  0  0
 20 41  1  0  0  0  0
 21 42  1  0  0  0  0
 21 43  1  0  0  0  0
 21 44  1  0  0  0  0
 22 23  1  0  0  0  0
 22 45  1  0  0  0  0
 23 46  1  0  0  0  0
 24 25  1  0  0  0  0
 24 47  1  0  0  0  0
 25 48  1  0  0  0  0
M  END
$$$$
