ZINC000000005336      none
 OpenBabel11202420153D

 27 29  0  0  0  0  0  0  0  0999 V2000
   30.0263   38.4865   63.3800 O   0  0  0  0  0  0  0  0  0  0  0  0
   30.4562   37.9867   62.3548 C   0  0  0  0  0  0  0  0  0  0  0  0
   30.1479   36.6403   62.0645 C   0  0  0  0  0  0  0  0  0  0  0  0
   30.6152   36.0626   60.9303 C   0  0  0  0  0  0  0  0  0  0  0  0
   31.4400   36.8656   60.0250 C   0  0  0  0  0  0  0  0  0  0  0  0
   31.9492   36.3241   58.8418 C   0  0  0  0  0  0  0  0  0  0  0  0
   32.7265   37.1170   58.0097 C   0  0  0  0  0  0  0  0  0  0  0  0
   33.2734   36.5542   56.7503 C   0  0  0  0  0  0  0  0  0  0  0  0
   33.4934   37.3764   55.6417 C   0  0  0  0  0  0  0  0  0  0  0  0
   34.0055   36.8033   54.4906 C   0  0  0  0  0  0  0  0  0  0  0  0
   34.2755   35.4469   54.4726 C   0  0  0  0  0  0  0  0  0  0  0  0
   34.0627   34.6972   55.5366 N   0  0  0  0  0  0  0  0  0  0  0  0
   33.5762   35.1979   56.6540 C   0  0  0  0  0  0  0  0  0  0  0  0
   33.0005   38.4439   58.3578 C   0  0  0  0  0  0  0  0  0  0  0  0
   32.5009   38.9800   59.5097 C   0  0  0  0  0  0  0  0  0  0  0  0
   31.7186   38.2046   60.3610 C   0  0  0  0  0  0  0  0  0  0  0  0
   31.2121   38.7316   61.5299 N   0  0  0  0  0  0  0  0  0  0  0  0
   31.4043   39.6540   61.7606 H   0  0  0  0  0  0  0  0  0  0  0  0
   29.5376   36.0684   62.7478 H   0  0  0  0  0  0  0  0  0  0  0  0
   30.3841   35.0332   60.6996 H   0  0  0  0  0  0  0  0  0  0  0  0
   31.7402   35.2980   58.5777 H   0  0  0  0  0  0  0  0  0  0  0  0
   33.2692   38.4322   55.6821 H   0  0  0  0  0  0  0  0  0  0  0  0
   34.1879   37.4079   53.6144 H   0  0  0  0  0  0  0  0  0  0  0  0
   34.6708   34.9954   53.5747 H   0  0  0  0  0  0  0  0  0  0  0  0
   33.4111   34.5511   57.5030 H   0  0  0  0  0  0  0  0  0  0  0  0
   33.6101   39.0522   57.7061 H   0  0  0  0  0  0  0  0  0  0  0  0
   32.7167   40.0075   59.7634 H   0  0  0  0  0  0  0  0  0  0  0  0
  1  2  2  0  0  0  0
  2 17  1  0  0  0  0
  2  3  1  0  0  0  0
  3  4  2  0  0  0  0
  3 19  1  0  0  0  0
  4  5  1  0  0  0  0
  4 20  1  0  0  0  0
  5 16  2  0  0  0  0
  5  6  1  0  0  0  0
  6  7  2  0  0  0  0
  6 21  1  0  0  0  0
  7  8  1  0  0  0  0
  7 14  1  0  0  0  0
  8 13  2  0  0  0  0
  8  9  1  0  0  0  0
  9 10  2  0  0  0  0
  9 22  1  0  0  0  0
 10 11  1  0  0  0  0
 10 23  1  0  0  0  0
 11 12  2  0  0  0  0
 11 24  1  0  0  0  0
 12 13  1  0  0  0  0
 13 25  1  0  0  0  0
 14 15  2  0  0  0  0
 14 26  1  0  0  0  0
 15 16  1  0  0  0  0
 15 27  1  0  0  0  0
 16 17  1  0  0  0  0
 17 18  1  0  0  0  0
M  END
$$$$
