ZINC000000035080      none
 OpenBabel11202420153D

 44 46  0  0  1  0  0  0  0  0999 V2000
   27.5518   41.7847   69.3299 C   0  0  0  0  0  0  0  0  0  0  0  0
   28.6627   42.5898   68.9298 O   0  0  0  0  0  0  0  0  0  0  0  0
   29.7218   41.9463   68.3699 C   0  0  0  0  0  0  0  0  0  0  0  0
   30.8328   42.6681   67.9584 C   0  0  0  0  0  0  0  0  0  0  0  0
   31.9067   42.0122   67.3916 C   0  0  0  0  0  0  0  0  0  0  0  0
   31.8763   40.6311   67.2334 C   0  0  0  0  0  0  0  0  0  0  0  0
   30.7662   39.9089   67.6414 C   0  0  0  0  0  0  0  0  0  0  0  0
   29.6904   40.5705   68.2102 C   0  0  0  0  0  0  0  0  0  0  0  0
   30.6979   38.4132   67.4803 C   0  0  2  0  0  0  0  0  0  0  0  0
   30.1116   38.1737   66.5932 H   0  0  0  0  0  0  0  0  0  0  0  0
   30.0578   37.8342   68.6481 O   0  0  0  0  0  0  0  0  0  0  0  0
   28.9236   37.1462   68.4430 C   0  0  0  0  0  0  0  0  0  0  0  0
   28.2031   36.5169   69.6073 C   0  0  0  0  0  0  0  0  0  0  0  0
   28.4803   37.0317   67.3249 O   0  0  0  0  0  0  0  0  0  0  0  0
   32.1012   37.8259   67.3313 C   0  0  0  0  0  0  0  0  0  0  0  0
   32.8598   37.9690   68.6523 C   0  0  0  0  0  0  0  0  0  0  0  0
   32.0004   36.3462   66.9557 C   0  0  0  0  0  0  0  0  0  0  0  0
   32.8451   38.5871   66.2263 C   0  0  1  0  0  0  0  0  0  0  0  0
   33.8303   38.1463   66.0732 H   0  0  0  0  0  0  0  0  0  0  0  0
   32.0541   38.5291   64.9449 C   0  0  0  0  0  0  0  0  0  0  0  0
   32.1714   37.5839   64.0110 C   0  0  0  0  0  0  0  0  0  0  0  0
   31.3362   37.7373   62.9178 C   0  0  0  0  0  0  0  0  0  0  0  0
   30.5471   38.8119   62.9598 C   0  0  0  0  0  0  0  0  0  0  0  0
   30.8404   39.7013   64.4486 S   0  0  0  0  0  0  0  0  0  0  0  0
   32.9826   39.9860   66.6630 N   0  0  0  0  0  0  0  0  0  0  0  0
   27.8792   41.0578   70.0732 H   0  0  0  0  0  0  0  0  0  0  0  0
   26.7782   42.4209   69.7598 H   0  0  0  0  0  0  0  0  0  0  0  0
   27.1511   41.2614   68.4618 H   0  0  0  0  0  0  0  0  0  0  0  0
   30.8571   43.7408   68.0811 H   0  0  0  0  0  0  0  0  0  0  0  0
   32.7724   42.5726   67.0704 H   0  0  0  0  0  0  0  0  0  0  0  0
   28.8237   40.0117   68.5308 H   0  0  0  0  0  0  0  0  0  0  0  0
   28.7484   36.7256   70.5279 H   0  0  0  0  0  0  0  0  0  0  0  0
   27.1974   36.9310   69.6792 H   0  0  0  0  0  0  0  0  0  0  0  0
   28.1424   35.4390   69.4574 H   0  0  0  0  0  0  0  0  0  0  0  0
   33.8616   37.5537   68.5427 H   0  0  0  0  0  0  0  0  0  0  0  0
   32.3274   37.4313   69.4369 H   0  0  0  0  0  0  0  0  0  0  0  0
   32.9306   39.0236   68.9183 H   0  0  0  0  0  0  0  0  0  0  0  0
   31.4677   35.8078   67.7396 H   0  0  0  0  0  0  0  0  0  0  0  0
   31.4598   36.2462   66.0145 H   0  0  0  0  0  0  0  0  0  0  0  0
   33.0019   35.9302   66.8454 H   0  0  0  0  0  0  0  0  0  0  0  0
   32.8637   36.7600   64.1021 H   0  0  0  0  0  0  0  0  0  0  0  0
   31.3270   37.0418   62.0916 H   0  0  0  0  0  0  0  0  0  0  0  0
   29.8365   39.0928   62.1965 H   0  0  0  0  0  0  0  0  0  0  0  0
   33.8259   40.4536   66.5575 H   0  0  0  0  0  0  0  0  0  0  0  0
  1  2  1  0  0  0  0
  1 26  1  0  0  0  0
  1 27  1  0  0  0  0
  1 28  1  0  0  0  0
  2  3  1  0  0  0  0
  3  8  2  0  0  0  0
  3  4  1  0  0  0  0
  4  5  2  0  0  0  0
  4 29  1  0  0  0  0
  5  6  1  0  0  0  0
  5 30  1  0  0  0  0
  6 25  1  0  0  0  0
  6  7  2  0  0  0  0
  7  8  1  0  0  0  0
  7  9  1  0  0  0  0
  8 31  1  0  0  0  0
  9 10  1  6  0  0  0
  9 11  1  0  0  0  0
  9 15  1  0  0  0  0
 11 12  1  0  0  0  0
 12 13  1  0  0  0  0
 12 14  2  0  0  0  0
 13 32  1  0  0  0  0
 13 33  1  0  0  0  0
 13 34  1  0  0  0  0
 15 16  1  0  0  0  0
 15 17  1  0  0  0  0
 15 18  1  0  0  0  0
 16 35  1  0  0  0  0
 16 36  1  0  0  0  0
 16 37  1  0  0  0  0
 17 38  1  0  0  0  0
 17 39  1  0  0  0  0
 17 40  1  0  0  0  0
 18 19  1  6  0  0  0
 18 20  1  0  0  0  0
 18 25  1  0  0  0  0
 20 24  1  0  0  0  0
 20 21  2  0  0  0  0
 21 22  1  0  0  0  0
 21 41  1  0  0  0  0
 22 23  2  0  0  0  0
 22 42  1  0  0  0  0
 23 24  1  0  0  0  0
 23 43  1  0  0  0  0
 25 44  1  0  0  0  0
M  END
$$$$
