ZINC000000019795      none
 OpenBabel11202420153D

 42 43  0  0  1  0  0  0  0  0999 V2000
   31.9283   32.6200   62.4071 C   0  0  0  0  0  0  0  0  0  0  0  0
   32.4280   33.9008   61.7357 C   0  0  0  0  0  0  0  0  0  0  0  0
   31.2315   34.7282   61.2614 C   0  0  0  0  0  0  0  0  0  0  0  0
   31.7113   35.9580   60.6168 N   0  0  0  0  0  0  0  0  0  0  0  0
   30.6885   37.0105   60.6645 C   0  0  0  0  0  0  0  0  0  0  0  0
   31.2716   38.3154   60.1172 C   0  0  0  0  0  0  0  0  0  0  0  0
   31.7382   38.0961   58.6754 C   0  0  0  0  0  0  0  0  0  0  0  0
   32.7664   36.9617   58.6472 C   0  0  2  0  0  0  0  0  0  0  0  0
   33.6377   37.2455   59.2374 H   0  0  0  0  0  0  0  0  0  0  0  0
   33.1865   36.6988   57.2239 C   0  0  0  0  0  0  0  0  0  0  0  0
   33.7780   37.7037   56.4809 C   0  0  0  0  0  0  0  0  0  0  0  0
   34.1673   37.4612   55.1770 C   0  0  0  0  0  0  0  0  0  0  0  0
   33.9564   36.2168   54.6127 C   0  0  0  0  0  0  0  0  0  0  0  0
   33.3607   35.2137   55.3539 C   0  0  0  0  0  0  0  0  0  0  0  0
   33.0920   33.6278   54.6348 S   0  0  0  0  0  0  0  0  0  0  0  0
   34.6030   32.6977   55.0125 C   0  0  0  0  0  0  0  0  0  0  0  0
   31.9877   33.0988   55.3556 O   0  0  0  0  0  0  0  0  0  0  0  0
   33.0008   33.8860   53.2404 O   0  0  0  0  0  0  0  0  0  0  0  0
   32.9754   35.4549   56.6596 C   0  0  0  0  0  0  0  0  0  0  0  0
   32.1399   35.6961   59.2370 C   0  0  0  0  0  0  0  0  0  0  0  0
   31.3451   32.0390   61.6926 H   0  0  0  0  0  0  0  0  0  0  0  0
   32.7806   32.0306   62.7450 H   0  0  0  0  0  0  0  0  0  0  0  0
   31.3031   32.8780   63.2619 H   0  0  0  0  0  0  0  0  0  0  0  0
   33.0531   33.6429   60.8809 H   0  0  0  0  0  0  0  0  0  0  0  0
   33.0111   34.4818   62.4502 H   0  0  0  0  0  0  0  0  0  0  0  0
   30.6064   34.9861   62.1162 H   0  0  0  0  0  0  0  0  0  0  0  0
   30.6484   34.1472   60.5470 H   0  0  0  0  0  0  0  0  0  0  0  0
   29.8326   36.7130   60.0585 H   0  0  0  0  0  0  0  0  0  0  0  0
   30.3689   37.1602   61.6957 H   0  0  0  0  0  0  0  0  0  0  0  0
   30.5075   39.0925   60.1382 H   0  0  0  0  0  0  0  0  0  0  0  0
   32.1186   38.6213   60.7314 H   0  0  0  0  0  0  0  0  0  0  0  0
   32.1945   39.0107   58.2965 H   0  0  0  0  0  0  0  0  0  0  0  0
   30.8841   37.8291   58.0533 H   0  0  0  0  0  0  0  0  0  0  0  0
   33.9389   38.6769   56.9204 H   0  0  0  0  0  0  0  0  0  0  0  0
   34.6330   38.2449   54.5980 H   0  0  0  0  0  0  0  0  0  0  0  0
   34.2575   36.0283   53.5928 H   0  0  0  0  0  0  0  0  0  0  0  0
   34.7324   32.6380   56.0931 H   0  0  0  0  0  0  0  0  0  0  0  0
   34.5232   31.6920   54.5999 H   0  0  0  0  0  0  0  0  0  0  0  0
   35.4614   33.2044   54.5712 H   0  0  0  0  0  0  0  0  0  0  0  0
   32.5096   34.6712   57.2388 H   0  0  0  0  0  0  0  0  0  0  0  0
   31.2774   35.4047   58.6378 H   0  0  0  0  0  0  0  0  0  0  0  0
   32.8746   34.8909   59.2317 H   0  0  0  0  0  0  0  0  0  0  0  0
  1  2  1  0  0  0  0
  1 21  1  0  0  0  0
  1 22  1  0  0  0  0
  1 23  1  0  0  0  0
  2  3  1  0  0  0  0
  2 24  1  0  0  0  0
  2 25  1  0  0  0  0
  3  4  1  0  0  0  0
  3 26  1  0  0  0  0
  3 27  1  0  0  0  0
  4 20  1  0  0  0  0
  4  5  1  0  0  0  0
  5  6  1  0  0  0  0
  5 28  1  0  0  0  0
  5 29  1  0  0  0  0
  6  7  1  0  0  0  0
  6 30  1  0  0  0  0
  6 31  1  0  0  0  0
  7  8  1  0  0  0  0
  7 32  1  0  0  0  0
  7 33  1  0  0  0  0
  8  9  1  1  0  0  0
  8 10  1  0  0  0  0
  8 20  1  0  0  0  0
 10 19  2  0  0  0  0
 10 11  1  0  0  0  0
 11 12  2  0  0  0  0
 11 34  1  0  0  0  0
 12 13  1  0  0  0  0
 12 35  1  0  0  0  0
 13 14  2  0  0  0  0
 13 36  1  0  0  0  0
 14 15  1  0  0  0  0
 14 19  1  0  0  0  0
 15 16  1  0  0  0  0
 15 17  2  0  0  0  0
 15 18  2  0  0  0  0
 16 37  1  0  0  0  0
 16 38  1  0  0  0  0
 16 39  1  0  0  0  0
 19 40  1  0  0  0  0
 20 41  1  0  0  0  0
 20 42  1  0  0  0  0
M  END
$$$$
