ZINC000000026245      none
 OpenBabel11202420153D

 36 37  0  0  0  0  0  0  0  0999 V2000
   28.3421   33.1075   66.3571 C   0  0  0  0  0  0  0  0  0  0  0  0
   29.5069   33.9262   66.4790 O   0  0  0  0  0  0  0  0  0  0  0  0
   29.8283   34.7048   65.4127 C   0  0  0  0  0  0  0  0  0  0  0  0
   30.9462   35.5249   65.4628 C   0  0  0  0  0  0  0  0  0  0  0  0
   31.2704   36.3158   64.3776 C   0  0  0  0  0  0  0  0  0  0  0  0
   30.4816   36.2910   63.2423 C   0  0  0  0  0  0  0  0  0  0  0  0
   30.8373   37.1553   62.0601 C   0  0  0  0  0  0  0  0  0  0  0  0
   30.6963   36.1824   60.5357 S   0  0  0  0  0  0  0  0  0  0  0  0
   31.5759   35.0670   60.5727 O   0  0  0  0  0  0  0  0  0  0  0  0
   29.3325   36.0280   60.1671 O   0  0  0  0  0  0  0  0  0  0  0  0
   31.3689   37.2251   59.2848 C   0  0  0  0  0  0  0  0  0  0  0  0
   32.4211   36.8257   58.5839 C   0  0  0  0  0  0  0  0  0  0  0  0
   32.9854   37.7003   57.5347 C   0  0  0  0  0  0  0  0  0  0  0  0
   33.0422   37.2600   56.2118 C   0  0  0  0  0  0  0  0  0  0  0  0
   33.5650   38.0824   55.2356 C   0  0  0  0  0  0  0  0  0  0  0  0
   34.0433   39.3396   55.5684 C   0  0  0  0  0  0  0  0  0  0  0  0
   34.5590   40.1391   54.6094 F   0  0  0  0  0  0  0  0  0  0  0  0
   33.9940   39.7797   56.8815 C   0  0  0  0  0  0  0  0  0  0  0  0
   33.4684   38.9674   57.8645 C   0  0  0  0  0  0  0  0  0  0  0  0
   29.3637   35.4789   63.1920 C   0  0  0  0  0  0  0  0  0  0  0  0
   29.0386   34.6815   64.2722 C   0  0  0  0  0  0  0  0  0  0  0  0
   28.2000   32.5385   67.2758 H   0  0  0  0  0  0  0  0  0  0  0  0
   27.4709   33.7391   66.1825 H   0  0  0  0  0  0  0  0  0  0  0  0
   28.4666   32.4208   65.5199 H   0  0  0  0  0  0  0  0  0  0  0  0
   31.5622   35.5451   66.3496 H   0  0  0  0  0  0  0  0  0  0  0  0
   32.1406   36.9544   64.4161 H   0  0  0  0  0  0  0  0  0  0  0  0
   31.8605   37.5153   62.1680 H   0  0  0  0  0  0  0  0  0  0  0  0
   30.1562   38.0049   62.0132 H   0  0  0  0  0  0  0  0  0  0  0  0
   30.9243   38.1896   59.0890 H   0  0  0  0  0  0  0  0  0  0  0  0
   32.8658   35.8612   58.7797 H   0  0  0  0  0  0  0  0  0  0  0  0
   32.6738   36.2786   55.9520 H   0  0  0  0  0  0  0  0  0  0  0  0
   33.6056   37.7441   54.2107 H   0  0  0  0  0  0  0  0  0  0  0  0
   34.3682   40.7605   57.1356 H   0  0  0  0  0  0  0  0  0  0  0  0
   33.4306   39.3114   58.8875 H   0  0  0  0  0  0  0  0  0  0  0  0
   28.7465   35.4648   62.3059 H   0  0  0  0  0  0  0  0  0  0  0  0
   28.1677   34.0442   64.2309 H   0  0  0  0  0  0  0  0  0  0  0  0
  1  2  1  0  0  0  0
  1 22  1  0  0  0  0
  1 23  1  0  0  0  0
  1 24  1  0  0  0  0
  2  3  1  0  0  0  0
  3 21  2  0  0  0  0
  3  4  1  0  0  0  0
  4  5  2  0  0  0  0
  4 25  1  0  0  0  0
  5  6  1  0  0  0  0
  5 26  1  0  0  0  0
  6  7  1  0  0  0  0
  6 20  2  0  0  0  0
  7  8  1  0  0  0  0
  7 27  1  0  0  0  0
  7 28  1  0  0  0  0
  8  9  2  0  0  0  0
  8 10  2  0  0  0  0
  8 11  1  0  0  0  0
 11 12  2  0  0  0  0
 11 29  1  0  0  0  0
 12 13  1  0  0  0  0
 12 30  1  0  0  0  0
 13 19  2  0  0  0  0
 13 14  1  0  0  0  0
 14 15  2  0  0  0  0
 14 31  1  0  0  0  0
 15 16  1  0  0  0  0
 15 32  1  0  0  0  0
 16 17  1  0  0  0  0
 16 18  2  0  0  0  0
 18 19  1  0  0  0  0
 18 33  1  0  0  0  0
 19 34  1  0  0  0  0
 20 21  1  0  0  0  0
 20 35  1  0  0  0  0
 21 36  1  0  0  0  0
M  END
$$$$
