ZINC000000030853      none
 OpenBabel11202420163D

 28 28  0  0  0  0  0  0  0  0999 V2000
   31.3345   38.8518   64.7150 C   0  0  0  0  0  0  0  0  0  0  0  0
   31.5313   37.4114   64.8961 N   0  0  0  0  0  0  0  0  0  0  0  0
   32.8141   36.9036   65.3891 C   0  0  0  0  0  0  0  0  0  0  0  0
   30.3038   36.3573   64.5434 S   0  0  0  0  0  0  0  0  0  0  0  0
   29.0967   37.1008   64.6379 O   0  0  0  0  0  0  0  0  0  0  0  0
   30.5540   35.1819   65.3018 O   0  0  0  0  0  0  0  0  0  0  0  0
   30.4666   35.9302   62.9516 N   0  0  0  0  0  0  0  0  0  0  0  0
   31.2768   34.7662   62.5680 C   0  0  0  0  0  0  0  0  0  0  0  0
   32.3076   35.2057   61.5234 C   0  0  0  0  0  0  0  0  0  0  0  0
   31.5871   35.8826   60.3550 C   0  0  0  0  0  0  0  0  0  0  0  0
   30.8502   37.1256   60.8592 C   0  0  0  0  0  0  0  0  0  0  0  0
   29.8030   36.7079   61.8963 C   0  0  0  0  0  0  0  0  0  0  0  0
   30.5101   39.1877   65.3439 H   0  0  0  0  0  0  0  0  0  0  0  0
   32.2450   39.3811   64.9963 H   0  0  0  0  0  0  0  0  0  0  0  0
   31.1022   39.0583   63.6703 H   0  0  0  0  0  0  0  0  0  0  0  0
   33.4739   36.7029   64.5451 H   0  0  0  0  0  0  0  0  0  0  0  0
   33.2730   37.6473   66.0405 H   0  0  0  0  0  0  0  0  0  0  0  0
   32.6494   35.9827   65.9485 H   0  0  0  0  0  0  0  0  0  0  0  0
   30.6324   33.9961   62.1440 H   0  0  0  0  0  0  0  0  0  0  0  0
   31.7906   34.3734   63.4455 H   0  0  0  0  0  0  0  0  0  0  0  0
   32.8513   34.3338   61.1595 H   0  0  0  0  0  0  0  0  0  0  0  0
   33.0071   35.9085   61.9757 H   0  0  0  0  0  0  0  0  0  0  0  0
   32.3160   36.1743   59.5990 H   0  0  0  0  0  0  0  0  0  0  0  0
   30.8700   35.1873   59.9188 H   0  0  0  0  0  0  0  0  0  0  0  0
   31.5635   37.8104   61.3179 H   0  0  0  0  0  0  0  0  0  0  0  0
   30.3566   37.6202   60.0227 H   0  0  0  0  0  0  0  0  0  0  0  0
   29.0384   36.0961   61.4177 H   0  0  0  0  0  0  0  0  0  0  0  0
   29.3443   37.5961   62.3307 H   0  0  0  0  0  0  0  0  0  0  0  0
  1  2  1  0  0  0  0
  1 13  1  0  0  0  0
  1 14  1  0  0  0  0
  1 15  1  0  0  0  0
  2  3  1  0  0  0  0
  2  4  1  0  0  0  0
  3 16  1  0  0  0  0
  3 17  1  0  0  0  0
  3 18  1  0  0  0  0
  4  5  2  0  0  0  0
  4  6  2  0  0  0  0
  4  7  1  0  0  0  0
  7 12  1  0  0  0  0
  7  8  1  0  0  0  0
  8  9  1  0  0  0  0
  8 19  1  0  0  0  0
  8 20  1  0  0  0  0
  9 10  1  0  0  0  0
  9 21  1  0  0  0  0
  9 22  1  0  0  0  0
 10 11  1  0  0  0  0
 10 23  1  0  0  0  0
 10 24  1  0  0  0  0
 11 12  1  0  0  0  0
 11 25  1  0  0  0  0
 11 26  1  0  0  0  0
 12 27  1  0  0  0  0
 12 28  1  0  0  0  0
M  END
$$$$
