ZINC000000038415      none
 OpenBabel11202420153D

 33 34  0  0  0  0  0  0  0  0999 V2000
   29.4967   31.7509   65.2882 C   0  0  0  0  0  0  0  0  0  0  0  0
   29.9776   32.7263   64.2449 C   0  0  0  0  0  0  0  0  0  0  0  0
   30.6906   32.2715   63.1512 C   0  0  0  0  0  0  0  0  0  0  0  0
   31.1370   33.1644   62.1963 C   0  0  0  0  0  0  0  0  0  0  0  0
   30.8597   34.5171   62.3297 C   0  0  0  0  0  0  0  0  0  0  0  0
   31.2925   35.3967   61.3885 O   0  0  0  0  0  0  0  0  0  0  0  0
   31.4145   34.9081   60.0511 C   0  0  0  0  0  0  0  0  0  0  0  0
   31.9034   36.0160   59.1542 C   0  0  0  0  0  0  0  0  0  0  0  0
   31.6254   37.1691   59.4080 O   0  0  0  0  0  0  0  0  0  0  0  0
   32.6494   35.7256   58.0700 N   0  0  0  0  0  0  0  0  0  0  0  0
   33.1036   36.7547   57.2369 C   0  0  0  0  0  0  0  0  0  0  0  0
   33.3056   36.5161   55.8839 C   0  0  0  0  0  0  0  0  0  0  0  0
   33.7497   37.5344   55.0633 C   0  0  0  0  0  0  0  0  0  0  0  0
   34.0028   38.7887   55.5901 C   0  0  0  0  0  0  0  0  0  0  0  0
   34.5677   40.0645   54.5572 Cl  0  0  0  0  0  0  0  0  0  0  0  0
   33.8068   39.0277   56.9390 C   0  0  0  0  0  0  0  0  0  0  0  0
   33.3583   38.0143   57.7630 C   0  0  0  0  0  0  0  0  0  0  0  0
   30.1395   34.9704   63.4254 C   0  0  0  0  0  0  0  0  0  0  0  0
   29.7002   34.0742   64.3804 C   0  0  0  0  0  0  0  0  0  0  0  0
   28.5053   31.3881   65.0169 H   0  0  0  0  0  0  0  0  0  0  0  0
   30.1881   30.9103   65.3455 H   0  0  0  0  0  0  0  0  0  0  0  0
   29.4490   32.2487   66.2566 H   0  0  0  0  0  0  0  0  0  0  0  0
   30.9020   31.2177   63.0452 H   0  0  0  0  0  0  0  0  0  0  0  0
   31.6976   32.8091   61.3443 H   0  0  0  0  0  0  0  0  0  0  0  0
   32.1259   34.0825   60.0296 H   0  0  0  0  0  0  0  0  0  0  0  0
   30.4427   34.5596   59.7015 H   0  0  0  0  0  0  0  0  0  0  0  0
   32.8717   34.8035   57.8670 H   0  0  0  0  0  0  0  0  0  0  0  0
   33.1126   35.5362   55.4731 H   0  0  0  0  0  0  0  0  0  0  0  0
   33.9034   37.3504   54.0102 H   0  0  0  0  0  0  0  0  0  0  0  0
   34.0052   40.0076   57.3476 H   0  0  0  0  0  0  0  0  0  0  0  0
   33.2062   38.2011   58.8158 H   0  0  0  0  0  0  0  0  0  0  0  0
   29.9220   36.0230   63.5313 H   0  0  0  0  0  0  0  0  0  0  0  0
   29.1395   34.4266   65.2337 H   0  0  0  0  0  0  0  0  0  0  0  0
  1  2  1  0  0  0  0
  1 20  1  0  0  0  0
  1 21  1  0  0  0  0
  1 22  1  0  0  0  0
  2 19  2  0  0  0  0
  2  3  1  0  0  0  0
  3  4  2  0  0  0  0
  3 23  1  0  0  0  0
  4  5  1  0  0  0  0
  4 24  1  0  0  0  0
  5  6  1  0  0  0  0
  5 18  2  0  0  0  0
  6  7  1  0  0  0  0
  7  8  1  0  0  0  0
  7 25  1  0  0  0  0
  7 26  1  0  0  0  0
  8  9  2  0  0  0  0
  8 10  1  0  0  0  0
 10 11  1  0  0  0  0
 10 27  1  0  0  0  0
 11 17  2  0  0  0  0
 11 12  1  0  0  0  0
 12 13  2  0  0  0  0
 12 28  1  0  0  0  0
 13 14  1  0  0  0  0
 13 29  1  0  0  0  0
 14 15  1  0  0  0  0
 14 16  2  0  0  0  0
 16 17  1  0  0  0  0
 16 30  1  0  0  0  0
 17 31  1  0  0  0  0
 18 19  1  0  0  0  0
 18 32  1  0  0  0  0
 19 33  1  0  0  0  0
M  END
$$$$
