ZINC000000036138      none
 OpenBabel11202420153D

 28 30  0  0  0  0  0  0  0  0999 V2000
   32.6524   34.5690   57.1932 Cl  0  0  0  0  0  0  0  0  0  0  0  0
   32.6301   36.2035   57.7775 C   0  0  0  0  0  0  0  0  0  0  0  0
   33.3705   37.1790   57.1335 C   0  0  0  0  0  0  0  0  0  0  0  0
   33.3520   38.4801   57.5988 C   0  0  0  0  0  0  0  0  0  0  0  0
   32.5935   38.8073   58.7075 C   0  0  0  0  0  0  0  0  0  0  0  0
   31.8532   37.8334   59.3510 C   0  0  0  0  0  0  0  0  0  0  0  0
   31.8713   36.5314   58.8867 C   0  0  0  0  0  0  0  0  0  0  0  0
   31.0646   35.4697   59.5887 C   0  0  0  0  0  0  0  0  0  0  0  0
   32.0726   34.7024   60.8815 S   0  0  0  0  0  0  0  0  0  0  0  0
   31.9193   35.9159   62.1497 C   0  0  0  0  0  0  0  0  0  0  0  0
   32.8280   36.1721   63.0571 N   0  0  0  0  0  0  0  0  0  0  0  0
   32.3692   37.1665   63.8653 C   0  0  0  0  0  0  0  0  0  0  0  0
   32.8998   37.8302   64.9726 C   0  0  0  0  0  0  0  0  0  0  0  0
   32.1655   38.8159   65.5948 C   0  0  0  0  0  0  0  0  0  0  0  0
   30.9038   39.1510   65.1282 C   0  0  0  0  0  0  0  0  0  0  0  0
   30.3671   38.5022   64.0342 C   0  0  0  0  0  0  0  0  0  0  0  0
   31.0919   37.5089   63.3963 C   0  0  0  0  0  0  0  0  0  0  0  0
   30.8493   36.7106   62.3311 O   0  0  0  0  0  0  0  0  0  0  0  0
   33.9632   36.9236   56.2675 H   0  0  0  0  0  0  0  0  0  0  0  0
   33.9300   39.2415   57.0962 H   0  0  0  0  0  0  0  0  0  0  0  0
   32.5790   39.8243   59.0706 H   0  0  0  0  0  0  0  0  0  0  0  0
   31.2641   38.0888   60.2194 H   0  0  0  0  0  0  0  0  0  0  0  0
   30.1808   35.9224   60.0380 H   0  0  0  0  0  0  0  0  0  0  0  0
   30.7580   34.7108   58.8688 H   0  0  0  0  0  0  0  0  0  0  0  0
   33.8819   37.5719   65.3401 H   0  0  0  0  0  0  0  0  0  0  0  0
   32.5751   39.3304   66.4516 H   0  0  0  0  0  0  0  0  0  0  0  0
   30.3369   39.9253   65.6236 H   0  0  0  0  0  0  0  0  0  0  0  0
   29.3837   38.7688   63.6760 H   0  0  0  0  0  0  0  0  0  0  0  0
  1  2  1  0  0  0  0
  2  7  2  0  0  0  0
  2  3  1  0  0  0  0
  3  4  2  0  0  0  0
  3 19  1  0  0  0  0
  4  5  1  0  0  0  0
  4 20  1  0  0  0  0
  5  6  2  0  0  0  0
  5 21  1  0  0  0  0
  6  7  1  0  0  0  0
  6 22  1  0  0  0  0
  7  8  1  0  0  0  0
  8  9  1  0  0  0  0
  8 23  1  0  0  0  0
  8 24  1  0  0  0  0
  9 10  1  0  0  0  0
 10 18  1  0  0  0  0
 10 11  2  0  0  0  0
 11 12  1  0  0  0  0
 12 17  2  0  0  0  0
 12 13  1  0  0  0  0
 13 14  2  0  0  0  0
 13 25  1  0  0  0  0
 14 15  1  0  0  0  0
 14 26  1  0  0  0  0
 15 16  2  0  0  0  0
 15 27  1  0  0  0  0
 16 17  1  0  0  0  0
 16 28  1  0  0  0  0
 17 18  1  0  0  0  0
M  END
$$$$
