ZINC000000000547      none
 OpenBabel11202420153D

 28 30  0  0  1  0  0  0  0  0999 V2000
   32.8624   35.7535   55.4797 O   0  0  0  0  0  0  0  0  0  0  0  0
   33.0949   36.9438   55.5911 N   0  0  0  0  0  0  0  0  0  0  0  0
   33.4259   37.5937   54.6155 O   0  0  0  0  0  0  0  0  0  0  0  0
   32.9755   37.6008   56.9121 C   0  0  0  0  0  0  0  0  0  0  0  0
   33.2391   38.9522   57.0384 C   0  0  0  0  0  0  0  0  0  0  0  0
   33.1277   39.5657   58.2719 C   0  0  0  0  0  0  0  0  0  0  0  0
   32.7525   38.8281   59.3794 C   0  0  0  0  0  0  0  0  0  0  0  0
   32.4942   37.4761   59.2543 C   0  0  0  0  0  0  0  0  0  0  0  0
   32.0914   36.6709   60.4626 C   0  0  2  0  0  0  0  0  0  0  0  0
   32.4261   35.6384   60.3616 H   0  0  0  0  0  0  0  0  0  0  0  0
   30.5702   36.7292   60.6659 C   0  0  0  0  0  0  0  0  0  0  0  0
   30.4184   37.3673   62.0052 N   0  0  0  0  0  0  0  0  0  0  0  0
   29.2835   37.7425   62.8489 C   0  0  0  0  0  0  0  0  0  0  0  0
   29.7166   38.3839   64.1638 C   0  0  0  0  0  0  0  0  0  0  0  0
   31.5309   38.3936   64.0869 S   0  0  0  0  0  0  0  0  0  0  0  0
   31.6632   37.6305   62.4876 C   0  0  0  0  0  0  0  0  0  0  0  0
   32.6345   37.2693   61.6820 N   0  0  0  0  0  0  0  0  0  0  0  0
   32.6001   36.8636   58.0193 C   0  0  0  0  0  0  0  0  0  0  0  0
   33.5324   39.5282   56.1732 H   0  0  0  0  0  0  0  0  0  0  0  0
   33.3339   40.6212   58.3705 H   0  0  0  0  0  0  0  0  0  0  0  0
   32.6658   39.3074   60.3433 H   0  0  0  0  0  0  0  0  0  0  0  0
   30.1036   37.3417   59.8944 H   0  0  0  0  0  0  0  0  0  0  0  0
   30.1451   35.7255   60.6691 H   0  0  0  0  0  0  0  0  0  0  0  0
   28.6563   38.4471   62.3028 H   0  0  0  0  0  0  0  0  0  0  0  0
   28.6973   36.8501   63.0683 H   0  0  0  0  0  0  0  0  0  0  0  0
   29.3331   39.4017   64.2354 H   0  0  0  0  0  0  0  0  0  0  0  0
   29.3727   37.7881   65.0094 H   0  0  0  0  0  0  0  0  0  0  0  0
   32.3939   35.8080   57.9206 H   0  0  0  0  0  0  0  0  0  0  0  0
  1  2  2  0  0  0  0
  2  3  2  0  0  0  0
  2  4  1  0  0  0  0
  4 18  2  0  0  0  0
  4  5  1  0  0  0  0
  5  6  2  0  0  0  0
  5 19  1  0  0  0  0
  6  7  1  0  0  0  0
  6 20  1  0  0  0  0
  7  8  2  0  0  0  0
  7 21  1  0  0  0  0
  8  9  1  0  0  0  0
  8 18  1  0  0  0  0
  9 10  1  6  0  0  0
  9 17  1  0  0  0  0
  9 11  1  0  0  0  0
 11 12  1  0  0  0  0
 11 22  1  0  0  0  0
 11 23  1  0  0  0  0
 12 16  1  0  0  0  0
 12 13  1  0  0  0  0
 13 14  1  0  0  0  0
 13 24  1  0  0  0  0
 13 25  1  0  0  0  0
 14 15  1  0  0  0  0
 14 26  1  0  0  0  0
 14 27  1  0  0  0  0
 15 16  1  0  0  0  0
 16 17  2  0  0  0  0
 18 28  1  0  0  0  0
M  END
$$$$
