ZINC000000045394      none
 OpenBabel11202420153D

 28 29  0  0  0  0  0  0  0  0999 V2000
   29.5389   37.2551   64.5533 O   0  0  0  0  0  0  0  0  0  0  0  0
   30.6928   37.5149   64.2718 C   0  0  0  0  0  0  0  0  0  0  0  0
   31.5111   38.0434   65.2032 N   0  0  0  0  0  0  0  0  0  0  0  0
   31.0084   38.3102   66.5532 C   0  0  0  0  0  0  0  0  0  0  0  0
   30.5205   37.0116   67.1986 C   0  0  0  0  0  0  0  0  0  0  0  0
   31.4722   35.6241   66.5509 Cl  0  0  0  0  0  0  0  0  0  0  0  0
   30.7402   37.1091   68.9855 Cl  0  0  0  0  0  0  0  0  0  0  0  0
   28.7741   36.7716   66.8200 Cl  0  0  0  0  0  0  0  0  0  0  0  0
   29.9349   39.2745   66.5018 O   0  0  0  0  0  0  0  0  0  0  0  0
   30.6308   40.5393   66.3840 C   0  0  0  0  0  0  0  0  0  0  0  0
   31.8774   40.3309   67.2719 C   0  0  0  0  0  0  0  0  0  0  0  0
   32.0420   38.9040   67.3572 O   0  0  0  0  0  0  0  0  0  0  0  0
   31.1978   37.2511   62.9089 C   0  0  0  0  0  0  0  0  0  0  0  0
   31.7700   36.0150   62.6006 C   0  0  0  0  0  0  0  0  0  0  0  0
   32.2348   35.7723   61.3259 C   0  0  0  0  0  0  0  0  0  0  0  0
   32.1449   36.7566   60.3534 C   0  0  0  0  0  0  0  0  0  0  0  0
   32.6069   36.5153   59.1069 F   0  0  0  0  0  0  0  0  0  0  0  0
   31.5830   37.9876   60.6557 C   0  0  0  0  0  0  0  0  0  0  0  0
   31.1102   38.2389   61.9257 C   0  0  0  0  0  0  0  0  0  0  0  0
   32.4316   38.2506   64.9786 H   0  0  0  0  0  0  0  0  0  0  0  0
   30.0167   41.3545   66.7665 H   0  0  0  0  0  0  0  0  0  0  0  0
   30.9205   40.7285   65.3504 H   0  0  0  0  0  0  0  0  0  0  0  0
   31.7110   40.7527   68.2631 H   0  0  0  0  0  0  0  0  0  0  0  0
   32.7527   40.7859   66.8080 H   0  0  0  0  0  0  0  0  0  0  0  0
   31.8446   35.2493   63.3587 H   0  0  0  0  0  0  0  0  0  0  0  0
   32.6737   34.8153   61.0854 H   0  0  0  0  0  0  0  0  0  0  0  0
   31.5161   38.7510   59.8946 H   0  0  0  0  0  0  0  0  0  0  0  0
   30.6730   39.1984   62.1601 H   0  0  0  0  0  0  0  0  0  0  0  0
  1  2  2  0  0  0  0
  2  3  1  0  0  0  0
  2 13  1  0  0  0  0
  3  4  1  0  0  0  0
  3 20  1  0  0  0  0
  4 12  1  0  0  0  0
  4  5  1  0  0  0  0
  4  9  1  0  0  0  0
  5  6  1  0  0  0  0
  5  7  1  0  0  0  0
  5  8  1  0  0  0  0
  9 10  1  0  0  0  0
 10 11  1  0  0  0  0
 10 21  1  0  0  0  0
 10 22  1  0  0  0  0
 11 12  1  0  0  0  0
 11 23  1  0  0  0  0
 11 24  1  0  0  0  0
 13 19  2  0  0  0  0
 13 14  1  0  0  0  0
 14 15  2  0  0  0  0
 14 25  1  0  0  0  0
 15 16  1  0  0  0  0
 15 26  1  0  0  0  0
 16 17  1  0  0  0  0
 16 18  2  0  0  0  0
 18 19  1  0  0  0  0
 18 27  1  0  0  0  0
 19 28  1  0  0  0  0
M  END
$$$$
