ZINC000000042818      none
 OpenBabel11202420153D

 40 42  0  0  1  0  0  0  0  0999 V2000
   30.3889   35.1613   64.6496 C   0  0  0  0  0  0  0  0  0  0  0  0
   31.0285   36.3231   63.8867 C   0  0  0  0  0  0  0  0  0  0  0  0
   32.3164   36.7505   64.5936 C   0  0  0  0  0  0  0  0  0  0  0  0
   31.3535   35.8785   62.4582 C   0  0  0  0  0  0  0  0  0  0  0  0
   31.9377   37.0637   61.6834 C   0  0  1  0  0  0  0  0  0  0  0  0
   32.8754   37.3741   62.1444 H   0  0  0  0  0  0  0  0  0  0  0  0
   32.1887   36.6570   60.2542 C   0  0  0  0  0  0  0  0  0  0  0  0
   32.6768   37.4291   59.3461 N   0  0  0  0  0  0  0  0  0  0  0  0
   32.8402   36.9117   58.1371 C   0  0  0  0  0  0  0  0  0  0  0  0
   33.3972   37.6817   56.9981 C   0  0  0  0  0  0  0  0  0  0  0  0
   34.1197   37.0302   56.0001 C   0  0  0  0  0  0  0  0  0  0  0  0
   34.6304   37.7508   54.9395 C   0  0  0  0  0  0  0  0  0  0  0  0
   34.4367   39.1187   54.8722 C   0  0  0  0  0  0  0  0  0  0  0  0
   34.9917   39.8869   53.7351 N   0  0  0  0  0  0  0  0  0  0  0  0
   35.6177   39.3143   52.8611 O   0  0  0  0  0  0  0  0  0  0  0  0
   34.8225   41.0915   53.6734 O   0  0  0  0  0  0  0  0  0  0  0  0
   33.7257   39.7715   55.8631 C   0  0  0  0  0  0  0  0  0  0  0  0
   33.2052   39.0602   56.9251 C   0  0  0  0  0  0  0  0  0  0  0  0
   32.4515   35.6248   58.0324 C   0  0  0  0  0  0  0  0  0  0  0  0
   31.8659   35.1068   59.6112 S   0  0  0  0  0  0  0  0  0  0  0  0
   30.9404   38.2258   61.7178 C   0  0  0  0  0  0  0  0  0  0  0  0
   30.6298   38.5783   63.1750 C   0  0  0  0  0  0  0  0  0  0  0  0
   30.1191   37.4246   63.8461 O   0  0  0  0  0  0  0  0  0  0  0  0
   31.0822   34.3209   64.6797 H   0  0  0  0  0  0  0  0  0  0  0  0
   30.1576   35.4781   65.6667 H   0  0  0  0  0  0  0  0  0  0  0  0
   29.4711   34.8574   64.1461 H   0  0  0  0  0  0  0  0  0  0  0  0
   32.7715   37.5785   64.0501 H   0  0  0  0  0  0  0  0  0  0  0  0
   32.0848   37.0670   65.6106 H   0  0  0  0  0  0  0  0  0  0  0  0
   33.0103   35.9104   64.6236 H   0  0  0  0  0  0  0  0  0  0  0  0
   30.4426   35.5357   61.9674 H   0  0  0  0  0  0  0  0  0  0  0  0
   32.0809   35.0672   62.4859 H   0  0  0  0  0  0  0  0  0  0  0  0
   34.2757   35.9629   56.0542 H   0  0  0  0  0  0  0  0  0  0  0  0
   35.1866   37.2463   54.1632 H   0  0  0  0  0  0  0  0  0  0  0  0
   33.5775   40.8397   55.8054 H   0  0  0  0  0  0  0  0  0  0  0  0
   32.6502   39.5709   57.6982 H   0  0  0  0  0  0  0  0  0  0  0  0
   32.4958   35.0178   57.1402 H   0  0  0  0  0  0  0  0  0  0  0  0
   31.3727   39.0917   61.2163 H   0  0  0  0  0  0  0  0  0  0  0  0
   30.0209   37.9319   61.2114 H   0  0  0  0  0  0  0  0  0  0  0  0
   29.8868   39.3753   63.2057 H   0  0  0  0  0  0  0  0  0  0  0  0
   31.5421   38.9124   63.6692 H   0  0  0  0  0  0  0  0  0  0  0  0
  1  2  1  0  0  0  0
  1 24  1  0  0  0  0
  1 25  1  0  0  0  0
  1 26  1  0  0  0  0
  2 23  1  0  0  0  0
  2  3  1  0  0  0  0
  2  4  1  0  0  0  0
  3 27  1  0  0  0  0
  3 28  1  0  0  0  0
  3 29  1  0  0  0  0
  4  5  1  0  0  0  0
  4 30  1  0  0  0  0
  4 31  1  0  0  0  0
  5  6  1  1  0  0  0
  5  7  1  0  0  0  0
  5 21  1  0  0  0  0
  7 20  1  0  0  0  0
  7  8  2  0  0  0  0
  8  9  1  0  0  0  0
  9 10  1  0  0  0  0
  9 19  2  0  0  0  0
 10 18  2  0  0  0  0
 10 11  1  0  0  0  0
 11 12  2  0  0  0  0
 11 32  1  0  0  0  0
 12 13  1  0  0  0  0
 12 33  1  0  0  0  0
 13 14  1  0  0  0  0
 13 17  2  0  0  0  0
 14 15  2  0  0  0  0
 14 16  2  0  0  0  0
 17 18  1  0  0  0  0
 17 34  1  0  0  0  0
 18 35  1  0  0  0  0
 19 20  1  0  0  0  0
 19 36  1  0  0  0  0
 21 22  1  0  0  0  0
 21 37  1  0  0  0  0
 21 38  1  0  0  0  0
 22 23  1  0  0  0  0
 22 39  1  0  0  0  0
 22 40  1  0  0  0  0
M  END
$$$$
