ZINC000000039161      none
 OpenBabel11202420153D

 42 44  0  0  1  0  0  0  0  0999 V2000
   32.6886   38.9807   58.1387 C   0  0  0  0  0  0  0  0  0  0  0  0
   31.4325   38.3480   58.3920 O   0  0  0  0  0  0  0  0  0  0  0  0
   31.3135   37.6576   59.5548 C   0  0  0  0  0  0  0  0  0  0  0  0
   30.1175   37.0185   59.8615 C   0  0  0  0  0  0  0  0  0  0  0  0
   29.9913   36.3171   61.0392 C   0  0  0  0  0  0  0  0  0  0  0  0
   31.0705   36.2480   61.9291 C   0  0  0  0  0  0  0  0  0  0  0  0
   30.9419   35.5013   63.1866 C   0  0  0  0  0  0  0  0  0  0  0  0
   31.1053   36.1382   64.3737 C   0  0  0  0  0  0  0  0  0  0  0  0
   31.6513   37.8034   64.6610 S   0  0  0  0  0  0  0  0  0  0  0  0
   31.5360   37.6795   66.4256 C   0  0  0  0  0  0  0  0  0  0  0  0
   31.8281   38.6642   67.3320 N   0  0  0  0  0  0  0  0  0  0  0  0
   33.1773   39.2413   67.4016 C   0  0  0  0  0  0  0  0  0  0  0  0
   33.0624   40.7684   67.2791 C   0  0  0  0  0  0  0  0  0  0  0  0
   32.1003   41.2892   68.3493 C   0  0  1  0  0  0  0  0  0  0  0  0
   32.0111   42.8138   68.2558 C   0  0  0  0  0  0  0  0  0  0  0  0
   30.7126   40.6828   68.1290 C   0  0  0  0  0  0  0  0  0  0  0  0
   30.7994   39.1587   68.2572 C   0  0  0  0  0  0  0  0  0  0  0  0
   31.1179   36.4659   66.6991 N   0  0  0  0  0  0  0  0  0  0  0  0
   30.8725   35.6121   65.7294 C   0  0  0  0  0  0  0  0  0  0  0  0
   30.4822   34.4742   65.9365 O   0  0  0  0  0  0  0  0  0  0  0  0
   32.2712   36.8986   61.6176 C   0  0  0  0  0  0  0  0  0  0  0  0
   32.3883   37.5920   60.4343 C   0  0  0  0  0  0  0  0  0  0  0  0
   32.6488   39.4962   57.1791 H   0  0  0  0  0  0  0  0  0  0  0  0
   32.8987   39.7006   58.9296 H   0  0  0  0  0  0  0  0  0  0  0  0
   33.4761   38.2276   58.1142 H   0  0  0  0  0  0  0  0  0  0  0  0
   29.2860   37.0722   59.1744 H   0  0  0  0  0  0  0  0  0  0  0  0
   29.0619   35.8208   61.2763 H   0  0  0  0  0  0  0  0  0  0  0  0
   30.7173   34.4451   63.1669 H   0  0  0  0  0  0  0  0  0  0  0  0
   33.6370   38.9822   68.3553 H   0  0  0  0  0  0  0  0  0  0  0  0
   33.7838   38.8524   66.5836 H   0  0  0  0  0  0  0  0  0  0  0  0
   32.6830   41.0290   66.2910 H   0  0  0  0  0  0  0  0  0  0  0  0
   34.0445   41.2187   67.4227 H   0  0  0  0  0  0  0  0  0  0  0  0
   32.4675   41.0068   69.3360 H   0  0  0  0  0  0  0  0  0  0  0  0
   31.3269   43.1852   69.0186 H   0  0  0  0  0  0  0  0  0  0  0  0
   32.9995   43.2459   68.4127 H   0  0  0  0  0  0  0  0  0  0  0  0
   31.6435   43.0963   67.2692 H   0  0  0  0  0  0  0  0  0  0  0  0
   30.3553   40.9443   67.1329 H   0  0  0  0  0  0  0  0  0  0  0  0
   30.0223   41.0721   68.8773 H   0  0  0  0  0  0  0  0  0  0  0  0
   29.8365   38.7153   68.0041 H   0  0  0  0  0  0  0  0  0  0  0  0
   31.0678   38.8907   69.2791 H   0  0  0  0  0  0  0  0  0  0  0  0
   33.1049   36.8525   62.3025 H   0  0  0  0  0  0  0  0  0  0  0  0
   33.3151   38.0900   60.1909 H   0  0  0  0  0  0  0  0  0  0  0  0
  1  2  1  0  0  0  0
  1 23  1  0  0  0  0
  1 24  1  0  0  0  0
  1 25  1  0  0  0  0
  2  3  1  0  0  0  0
  3 22  2  0  0  0  0
  3  4  1  0  0  0  0
  4  5  2  0  0  0  0
  4 26  1  0  0  0  0
  5  6  1  0  0  0  0
  5 27  1  0  0  0  0
  6  7  1  0  0  0  0
  6 21  2  0  0  0  0
  7  8  2  0  0  0  0
  7 28  1  0  0  0  0
  8 19  1  0  0  0  0
  8  9  1  0  0  0  0
  9 10  1  0  0  0  0
 10 11  1  0  0  0  0
 10 18  2  0  0  0  0
 11 17  1  0  0  0  0
 11 12  1  0  0  0  0
 12 13  1  0  0  0  0
 12 29  1  0  0  0  0
 12 30  1  0  0  0  0
 13 14  1  0  0  0  0
 13 31  1  0  0  0  0
 13 32  1  0  0  0  0
 14 15  1  0  0  0  0
 14 16  1  0  0  0  0
 14 33  1  1  0  0  0
 15 34  1  0  0  0  0
 15 35  1  0  0  0  0
 15 36  1  0  0  0  0
 16 17  1  0  0  0  0
 16 37  1  0  0  0  0
 16 38  1  0  0  0  0
 17 39  1  0  0  0  0
 17 40  1  0  0  0  0
 18 19  1  0  0  0  0
 19 20  2  0  0  0  0
 21 22  1  0  0  0  0
 21 41  1  0  0  0  0
 22 42  1  0  0  0  0
M  END
$$$$
