ZINC000000034767      none
 OpenBabel11202420153D

 32 35  0  0  0  0  0  0  0  0999 V2000
   33.2021   34.8153   56.4129 C   0  0  0  0  0  0  0  0  0  0  0  0
   32.7260   34.6239   57.8298 C   0  0  0  0  0  0  0  0  0  0  0  0
   32.3906   33.4597   58.3926 N   0  0  0  0  0  0  0  0  0  0  0  0
   32.0134   33.6681   59.6451 C   0  0  0  0  0  0  0  0  0  0  0  0
   31.4334   32.8184   61.0766 S   0  0  0  0  0  0  0  0  0  0  0  0
   31.3515   34.3312   61.9681 C   0  0  0  0  0  0  0  0  0  0  0  0
   31.7354   35.3200   61.2011 C   0  0  0  0  0  0  0  0  0  0  0  0
   32.1052   34.9893   59.9194 N   0  0  0  0  0  0  0  0  0  0  0  0
   32.5669   35.6045   58.7547 C   0  0  0  0  0  0  0  0  0  0  0  0
   32.8264   37.0479   58.5633 C   0  0  0  0  0  0  0  0  0  0  0  0
   32.6337   37.9510   59.5425 C   0  0  0  0  0  0  0  0  0  0  0  0
   33.0534   39.5436   58.9167 S   0  0  0  0  0  0  0  0  0  0  0  0
   33.4584   38.8289   57.3594 C   0  0  0  0  0  0  0  0  0  0  0  0
   33.9111   39.5286   56.2507 N   0  0  0  0  0  0  0  0  0  0  0  0
   34.1933   38.8516   55.0683 C   0  0  0  0  0  0  0  0  0  0  0  0
   34.6466   39.5596   53.9598 C   0  0  0  0  0  0  0  0  0  0  0  0
   34.9284   38.8733   52.7925 C   0  0  0  0  0  0  0  0  0  0  0  0
   34.7363   37.4981   52.7694 C   0  0  0  0  0  0  0  0  0  0  0  0
   34.2837   36.8594   53.9064 C   0  0  0  0  0  0  0  0  0  0  0  0
   34.0277   37.5393   55.0081 N   0  0  0  0  0  0  0  0  0  0  0  0
   33.2626   37.5473   57.4075 N   0  0  0  0  0  0  0  0  0  0  0  0
   34.2881   34.7283   56.3795 H   0  0  0  0  0  0  0  0  0  0  0  0
   32.7567   34.0527   55.7738 H   0  0  0  0  0  0  0  0  0  0  0  0
   32.9058   35.8033   56.0602 H   0  0  0  0  0  0  0  0  0  0  0  0
   31.0323   34.4298   62.9951 H   0  0  0  0  0  0  0  0  0  0  0  0
   31.7602   36.3398   61.5561 H   0  0  0  0  0  0  0  0  0  0  0  0
   32.2817   37.7362   60.5408 H   0  0  0  0  0  0  0  0  0  0  0  0
   34.0309   40.4899   56.2996 H   0  0  0  0  0  0  0  0  0  0  0  0
   34.7805   40.6301   54.0113 H   0  0  0  0  0  0  0  0  0  0  0  0
   35.2855   39.3957   51.9173 H   0  0  0  0  0  0  0  0  0  0  0  0
   34.9433   36.9333   51.8724 H   0  0  0  0  0  0  0  0  0  0  0  0
   34.1369   35.7896   53.8942 H   0  0  0  0  0  0  0  0  0  0  0  0
  1  2  1  0  0  0  0
  1 22  1  0  0  0  0
  1 23  1  0  0  0  0
  1 24  1  0  0  0  0
  2  9  2  0  0  0  0
  2  3  1  0  0  0  0
  3  4  2  0  0  0  0
  4  8  1  0  0  0  0
  4  5  1  0  0  0  0
  5  6  1  0  0  0  0
  6  7  2  0  0  0  0
  6 25  1  0  0  0  0
  7  8  1  0  0  0  0
  7 26  1  0  0  0  0
  8  9  1  0  0  0  0
  9 10  1  0  0  0  0
 10 21  1  0  0  0  0
 10 11  2  0  0  0  0
 11 12  1  0  0  0  0
 11 27  1  0  0  0  0
 12 13  1  0  0  0  0
 13 14  1  0  0  0  0
 13 21  2  0  0  0  0
 14 15  1  0  0  0  0
 14 28  1  0  0  0  0
 15 20  2  0  0  0  0
 15 16  1  0  0  0  0
 16 17  2  0  0  0  0
 16 29  1  0  0  0  0
 17 18  1  0  0  0  0
 17 30  1  0  0  0  0
 18 19  2  0  0  0  0
 18 31  1  0  0  0  0
 19 20  1  0  0  0  0
 19 32  1  0  0  0  0
M  END
$$$$
