ZINC000000048482      none
 OpenBabel11202420153D

 33 34  0  0  0  0  0  0  0  0999 V2000
   32.0639   36.9227   58.2315 C   0  0  0  0  0  0  0  0  0  0  0  0
   32.1922   37.8167   59.3851 N   0  0  0  0  0  0  0  0  0  0  0  0
   32.7750   39.1503   59.2169 C   0  0  0  0  0  0  0  0  0  0  0  0
   31.7599   37.3983   60.6429 C   0  0  0  0  0  0  0  0  0  0  0  0
   30.4273   37.0504   60.8383 C   0  0  0  0  0  0  0  0  0  0  0  0
   29.9968   36.6362   62.0791 C   0  0  0  0  0  0  0  0  0  0  0  0
   30.9007   36.5660   63.1432 C   0  0  0  0  0  0  0  0  0  0  0  0
   30.4440   36.1233   64.4724 C   0  0  0  0  0  0  0  0  0  0  0  0
   29.2006   35.7978   64.6565 N   0  0  0  0  0  0  0  0  0  0  0  0
   28.7663   35.3768   65.9202 N   0  0  0  0  0  0  0  0  0  0  0  0
   28.2047   34.1571   66.2130 C   0  0  0  0  0  0  0  0  0  0  0  0
   27.9530   33.0473   65.2250 C   0  0  0  0  0  0  0  0  0  0  0  0
   28.3805   33.4482   63.9547 F   0  0  0  0  0  0  0  0  0  0  0  0
   28.6603   31.9054   65.6162 F   0  0  0  0  0  0  0  0  0  0  0  0
   26.5847   32.7581   65.1870 F   0  0  0  0  0  0  0  0  0  0  0  0
   27.9268   34.1181   67.4770 N   0  0  0  0  0  0  0  0  0  0  0  0
   28.3110   35.3403   68.0460 N   0  0  0  0  0  0  0  0  0  0  0  0
   28.2253   35.5922   68.9787 H   0  0  0  0  0  0  0  0  0  0  0  0
   28.8275   36.0991   67.0569 C   0  0  0  0  0  0  0  0  0  0  0  0
   29.4470   37.6871   67.2162 S   0  0  0  0  0  0  0  0  0  0  0  0
   32.2378   36.9222   62.9445 C   0  0  0  0  0  0  0  0  0  0  0  0
   32.6623   37.3301   61.6994 C   0  0  0  0  0  0  0  0  0  0  0  0
   31.5314   36.0195   58.5295 H   0  0  0  0  0  0  0  0  0  0  0  0
   31.5090   37.4274   57.4408 H   0  0  0  0  0  0  0  0  0  0  0  0
   33.0556   36.6561   57.8663 H   0  0  0  0  0  0  0  0  0  0  0  0
   33.8530   39.0977   59.3686 H   0  0  0  0  0  0  0  0  0  0  0  0
   32.5669   39.5135   58.2105 H   0  0  0  0  0  0  0  0  0  0  0  0
   32.3383   39.8322   59.9468 H   0  0  0  0  0  0  0  0  0  0  0  0
   29.7295   37.1050   60.0158 H   0  0  0  0  0  0  0  0  0  0  0  0
   28.9620   36.3664   62.2301 H   0  0  0  0  0  0  0  0  0  0  0  0
   31.1435   36.0696   65.2935 H   0  0  0  0  0  0  0  0  0  0  0  0
   32.9381   36.8735   63.7654 H   0  0  0  0  0  0  0  0  0  0  0  0
   33.6961   37.6012   61.5441 H   0  0  0  0  0  0  0  0  0  0  0  0
  1  2  1  0  0  0  0
  1 23  1  0  0  0  0
  1 24  1  0  0  0  0
  1 25  1  0  0  0  0
  2  3  1  0  0  0  0
  2  4  1  0  0  0  0
  3 26  1  0  0  0  0
  3 27  1  0  0  0  0
  3 28  1  0  0  0  0
  4 22  2  0  0  0  0
  4  5  1  0  0  0  0
  5  6  2  0  0  0  0
  5 29  1  0  0  0  0
  6  7  1  0  0  0  0
  6 30  1  0  0  0  0
  7  8  1  0  0  0  0
  7 21  2  0  0  0  0
  8  9  2  0  0  0  0
  8 31  1  0  0  0  0
  9 10  1  0  0  0  0
 10 19  1  0  0  0  0
 10 11  1  0  0  0  0
 11 12  1  0  0  0  0
 11 16  2  0  0  0  0
 12 13  1  0  0  0  0
 12 14  1  0  0  0  0
 12 15  1  0  0  0  0
 16 17  1  0  0  0  0
 17 18  1  0  0  0  0
 17 19  1  0  0  0  0
 19 20  2  0  0  0  0
 21 22  1  0  0  0  0
 21 32  1  0  0  0  0
 22 33  1  0  0  0  0
M  END
$$$$
