ZINC000000040542      none
 OpenBabel11202420153D

 27 28  0  0  0  0  0  0  0  0999 V2000
   29.7389   36.8727   64.7794 C   0  0  0  0  0  0  0  0  0  0  0  0
   29.3625   35.7652   63.7930 C   0  0  0  0  0  0  0  0  0  0  0  0
   29.6367   36.2101   62.4383 O   0  0  0  0  0  0  0  0  0  0  0  0
   30.8643   35.9501   61.9454 C   0  0  0  0  0  0  0  0  0  0  0  0
   31.4750   34.9688   62.3216 O   0  0  0  0  0  0  0  0  0  0  0  0
   31.4641   36.8533   60.9529 C   0  0  0  0  0  0  0  0  0  0  0  0
   31.8141   36.3824   59.6960 C   0  0  0  0  0  0  0  0  0  0  0  0
   31.5506   34.7193   59.2735 Cl  0  0  0  0  0  0  0  0  0  0  0  0
   32.3854   37.2803   58.7599 C   0  0  0  0  0  0  0  0  0  0  0  0
   32.7438   36.8341   57.4789 C   0  0  0  0  0  0  0  0  0  0  0  0
   33.2978   37.7047   56.5860 C   0  0  0  0  0  0  0  0  0  0  0  0
   33.5104   39.0324   56.9337 C   0  0  0  0  0  0  0  0  0  0  0  0
   33.1665   39.4942   58.1851 C   0  0  0  0  0  0  0  0  0  0  0  0
   32.5997   38.6255   59.1147 C   0  0  0  0  0  0  0  0  0  0  0  0
   32.2547   39.0846   60.3686 N   0  0  0  0  0  0  0  0  0  0  0  0
   32.4098   40.0146   60.5962 H   0  0  0  0  0  0  0  0  0  0  0  0
   31.7056   38.2616   61.2813 C   0  0  0  0  0  0  0  0  0  0  0  0
   31.4081   38.6882   62.3825 O   0  0  0  0  0  0  0  0  0  0  0  0
   29.1518   37.7656   64.5644 H   0  0  0  0  0  0  0  0  0  0  0  0
   29.5331   36.5387   65.7964 H   0  0  0  0  0  0  0  0  0  0  0  0
   30.7997   37.1026   64.6801 H   0  0  0  0  0  0  0  0  0  0  0  0
   28.3017   35.5353   63.8923 H   0  0  0  0  0  0  0  0  0  0  0  0
   29.9496   34.8723   64.0080 H   0  0  0  0  0  0  0  0  0  0  0  0
   32.5814   35.8035   57.1999 H   0  0  0  0  0  0  0  0  0  0  0  0
   33.5730   37.3584   55.6008 H   0  0  0  0  0  0  0  0  0  0  0  0
   33.9492   39.7094   56.2159 H   0  0  0  0  0  0  0  0  0  0  0  0
   33.3364   40.5285   58.4453 H   0  0  0  0  0  0  0  0  0  0  0  0
  1  2  1  0  0  0  0
  1 19  1  0  0  0  0
  1 20  1  0  0  0  0
  1 21  1  0  0  0  0
  2  3  1  0  0  0  0
  2 22  1  0  0  0  0
  2 23  1  0  0  0  0
  3  4  1  0  0  0  0
  4  5  2  0  0  0  0
  4  6  1  0  0  0  0
  6 17  1  0  0  0  0
  6  7  2  0  0  0  0
  7  8  1  0  0  0  0
  7  9  1  0  0  0  0
  9 14  2  0  0  0  0
  9 10  1  0  0  0  0
 10 11  2  0  0  0  0
 10 24  1  0  0  0  0
 11 12  1  0  0  0  0
 11 25  1  0  0  0  0
 12 13  2  0  0  0  0
 12 26  1  0  0  0  0
 13 14  1  0  0  0  0
 13 27  1  0  0  0  0
 14 15  1  0  0  0  0
 15 16  1  0  0  0  0
 15 17  1  0  0  0  0
 17 18  2  0  0  0  0
M  END
$$$$
