ZINC000000003857      none
 OpenBabel11202420153D

 29 32  0  0  1  0  0  0  0  0999 V2000
   34.7132   32.6767   53.5774 O   0  0  0  0  0  0  0  0  0  0  0  0
   34.2110   33.7720   53.7357 C   0  0  0  0  0  0  0  0  0  0  0  0
   32.9888   34.1013   53.2984 N   0  0  0  0  0  0  0  0  0  0  0  0
   32.6778   35.3782   53.6074 C   0  0  0  0  0  0  0  0  0  0  0  0
   31.6503   35.9676   53.3495 O   0  0  0  0  0  0  0  0  0  0  0  0
   33.8811   35.9158   54.3418 C   0  0  2  0  0  0  0  0  0  0  0  0
   34.8210   34.7919   54.3713 N   0  0  0  0  0  0  0  0  0  0  0  0
   33.5188   36.3680   55.7276 C   0  0  0  0  0  0  0  0  0  0  0  0
   32.9571   35.7182   56.8066 C   0  0  0  0  0  0  0  0  0  0  0  0
   32.7317   36.4013   57.9881 C   0  0  0  0  0  0  0  0  0  0  0  0
   33.0681   37.7393   58.0913 C   0  0  0  0  0  0  0  0  0  0  0  0
   33.6297   38.3986   57.0180 C   0  0  0  0  0  0  0  0  0  0  0  0
   33.8621   37.7158   55.8231 C   0  0  0  0  0  0  0  0  0  0  0  0
   34.4447   38.1697   54.5353 C   0  0  0  0  0  0  0  0  0  0  0  0
   34.9327   39.4152   54.1361 C   0  0  0  0  0  0  0  0  0  0  0  0
   35.4322   39.5850   52.8624 C   0  0  0  0  0  0  0  0  0  0  0  0
   35.4521   38.5216   51.9741 C   0  0  0  0  0  0  0  0  0  0  0  0
   35.9438   38.6926   50.7275 F   0  0  0  0  0  0  0  0  0  0  0  0
   34.9686   37.2830   52.3635 C   0  0  0  0  0  0  0  0  0  0  0  0
   34.4671   37.1049   53.6354 C   0  0  0  0  0  0  0  0  0  0  0  0
   32.4001   33.4974   52.8193 H   0  0  0  0  0  0  0  0  0  0  0  0
   35.7058   34.7838   54.7687 H   0  0  0  0  0  0  0  0  0  0  0  0
   32.6929   34.6739   56.7290 H   0  0  0  0  0  0  0  0  0  0  0  0
   32.2921   35.8893   58.8314 H   0  0  0  0  0  0  0  0  0  0  0  0
   32.8903   38.2692   59.0155 H   0  0  0  0  0  0  0  0  0  0  0  0
   33.8908   39.4431   57.1026 H   0  0  0  0  0  0  0  0  0  0  0  0
   34.9186   40.2464   54.8254 H   0  0  0  0  0  0  0  0  0  0  0  0
   35.8094   40.5495   52.5561 H   0  0  0  0  0  0  0  0  0  0  0  0
   34.9806   36.4567   51.6682 H   0  0  0  0  0  0  0  0  0  0  0  0
  1  2  2  0  0  0  0
  2  7  1  0  0  0  0
  2  3  1  0  0  0  0
  3  4  1  0  0  0  0
  3 21  1  0  0  0  0
  4  5  2  0  0  0  0
  6  4  1  6  0  0  0
  6 20  1  0  0  0  0
  6  7  1  0  0  0  0
  6  8  1  0  0  0  0
  7 22  1  0  0  0  0
  8 13  2  0  0  0  0
  8  9  1  0  0  0  0
  9 10  2  0  0  0  0
  9 23  1  0  0  0  0
 10 11  1  0  0  0  0
 10 24  1  0  0  0  0
 11 12  2  0  0  0  0
 11 25  1  0  0  0  0
 12 13  1  0  0  0  0
 12 26  1  0  0  0  0
 13 14  1  0  0  0  0
 14 20  2  0  0  0  0
 14 15  1  0  0  0  0
 15 16  2  0  0  0  0
 15 27  1  0  0  0  0
 16 17  1  0  0  0  0
 16 28  1  0  0  0  0
 17 18  1  0  0  0  0
 17 19  2  0  0  0  0
 19 20  1  0  0  0  0
 19 29  1  0  0  0  0
M  END
$$$$
