ZINC000000055011      none
 OpenBabel11202420153D

 29 30  0  0  1  0  0  0  0  0999 V2000
   29.6510   31.6073   65.1856 C   0  0  0  0  0  0  0  0  0  0  0  0
   29.5760   33.0903   65.4432 C   0  0  0  0  0  0  0  0  0  0  0  0
   29.1221   33.6227   66.5579 C   0  0  0  0  0  0  0  0  0  0  0  0
   29.2140   35.1255   66.4151 C   0  0  1  0  0  0  0  0  0  0  0  0
   27.9162   35.7158   66.5104 O   0  0  0  0  0  0  0  0  0  0  0  0
   30.1435   35.7074   67.4821 C   0  0  0  0  0  0  0  0  0  0  0  0
   31.4216   35.1573   67.3373 F   0  0  0  0  0  0  0  0  0  0  0  0
   30.2140   37.0965   67.3319 F   0  0  0  0  0  0  0  0  0  0  0  0
   29.6448   35.4004   68.7526 F   0  0  0  0  0  0  0  0  0  0  0  0
   29.7850   35.3351   65.0737 N   0  0  0  0  0  0  0  0  0  0  0  0
   30.0646   36.5141   64.4837 C   0  0  0  0  0  0  0  0  0  0  0  0
   29.8444   37.5549   65.0709 O   0  0  0  0  0  0  0  0  0  0  0  0
   30.6408   36.5412   63.1190 C   0  0  0  0  0  0  0  0  0  0  0  0
   31.8834   37.1339   62.8754 C   0  0  0  0  0  0  0  0  0  0  0  0
   32.3857   37.1317   61.5884 C   0  0  0  0  0  0  0  0  0  0  0  0
   31.7054   36.5911   60.5973 N   0  0  0  0  0  0  0  0  0  0  0  0
   30.5284   36.0273   60.7825 C   0  0  0  0  0  0  0  0  0  0  0  0
   29.9541   35.9799   62.0380 C   0  0  0  0  0  0  0  0  0  0  0  0
   29.9749   34.0539   64.5369 N   0  0  0  0  0  0  0  0  0  0  0  0
   30.0623   31.4314   64.1916 H   0  0  0  0  0  0  0  0  0  0  0  0
   30.2937   31.1410   65.9324 H   0  0  0  0  0  0  0  0  0  0  0  0
   28.6514   31.1770   65.2467 H   0  0  0  0  0  0  0  0  0  0  0  0
   28.7517   33.0845   67.4178 H   0  0  0  0  0  0  0  0  0  0  0  0
   27.4759   35.5632   67.3576 H   0  0  0  0  0  0  0  0  0  0  0  0
   32.4442   37.5827   63.6819 H   0  0  0  0  0  0  0  0  0  0  0  0
   33.3469   37.5828   61.3910 H   0  0  0  0  0  0  0  0  0  0  0  0
   30.0061   35.5961   59.9412 H   0  0  0  0  0  0  0  0  0  0  0  0
   28.9896   35.5160   62.1825 H   0  0  0  0  0  0  0  0  0  0  0  0
   30.3382   33.8702   63.6566 H   0  0  0  0  0  0  0  0  0  0  0  0
  1  2  1  0  0  0  0
  1 20  1  0  0  0  0
  1 21  1  0  0  0  0
  1 22  1  0  0  0  0
  2 19  1  0  0  0  0
  2  3  2  0  0  0  0
  3  4  1  0  0  0  0
  3 23  1  0  0  0  0
  4  5  1  1  0  0  0
  4  6  1  0  0  0  0
  4 10  1  0  0  0  0
  5 24  1  0  0  0  0
  6  7  1  0  0  0  0
  6  8  1  0  0  0  0
  6  9  1  0  0  0  0
 10 11  1  0  0  0  0
 10 19  1  0  0  0  0
 11 12  2  0  0  0  0
 11 13  1  0  0  0  0
 13 18  2  0  0  0  0
 13 14  1  0  0  0  0
 14 15  2  0  0  0  0
 14 25  1  0  0  0  0
 15 16  1  0  0  0  0
 15 26  1  0  0  0  0
 16 17  2  0  0  0  0
 17 18  1  0  0  0  0
 17 27  1  0  0  0  0
 18 28  1  0  0  0  0
 19 29  1  0  0  0  0
M  END
$$$$
