ZINC000000038860      none
 OpenBabel11202420153D

 34 35  0  0  0  0  0  0  0  0999 V2000
   29.3990   39.0176   63.0310 C   0  0  0  0  0  0  0  0  0  0  0  0
   30.0455   37.7518   62.7344 O   0  0  0  0  0  0  0  0  0  0  0  0
   31.2258   37.5165   63.3288 C   0  0  0  0  0  0  0  0  0  0  0  0
   31.7030   38.3407   64.0722 O   0  0  0  0  0  0  0  0  0  0  0  0
   31.9558   36.2239   63.0689 C   0  0  0  0  0  0  0  0  0  0  0  0
   31.6253   35.7257   61.6605 C   0  0  0  0  0  0  0  0  0  0  0  0
   32.0547   36.7572   60.6492 C   0  0  0  0  0  0  0  0  0  0  0  0
   32.0547   37.9333   60.9452 O   0  0  0  0  0  0  0  0  0  0  0  0
   32.4385   36.3727   59.4158 N   0  0  0  0  0  0  0  0  0  0  0  0
   32.8341   37.3237   58.4833 C   0  0  0  0  0  0  0  0  0  0  0  0
   33.2213   37.0699   57.2723 N   0  0  0  0  0  0  0  0  0  0  0  0
   33.5628   38.1064   56.5197 C   0  0  0  0  0  0  0  0  0  0  0  0
   34.0231   37.9512   55.1183 C   0  0  0  0  0  0  0  0  0  0  0  0
   34.9182   38.8685   54.5703 C   0  0  0  0  0  0  0  0  0  0  0  0
   35.3387   38.7223   53.2641 C   0  0  0  0  0  0  0  0  0  0  0  0
   34.8735   37.6681   52.4989 C   0  0  0  0  0  0  0  0  0  0  0  0
   33.9849   36.7548   53.0373 C   0  0  0  0  0  0  0  0  0  0  0  0
   33.5576   36.8909   54.3424 C   0  0  0  0  0  0  0  0  0  0  0  0
   33.4685   39.3082   57.1166 C   0  0  0  0  0  0  0  0  0  0  0  0
   32.8869   39.0617   58.7617 S   0  0  0  0  0  0  0  0  0  0  0  0
   30.0491   39.8379   62.7263 H   0  0  0  0  0  0  0  0  0  0  0  0
   28.4562   39.0802   62.4875 H   0  0  0  0  0  0  0  0  0  0  0  0
   29.2063   39.0852   64.1017 H   0  0  0  0  0  0  0  0  0  0  0  0
   31.6452   35.4779   63.8004 H   0  0  0  0  0  0  0  0  0  0  0  0
   33.0298   36.3899   63.1529 H   0  0  0  0  0  0  0  0  0  0  0  0
   30.5513   35.5597   61.5766 H   0  0  0  0  0  0  0  0  0  0  0  0
   32.1532   34.7908   61.4727 H   0  0  0  0  0  0  0  0  0  0  0  0
   32.4385   35.4319   59.1792 H   0  0  0  0  0  0  0  0  0  0  0  0
   35.2824   39.6917   55.1671 H   0  0  0  0  0  0  0  0  0  0  0  0
   36.0325   39.4322   52.8386 H   0  0  0  0  0  0  0  0  0  0  0  0
   35.2049   37.5578   51.4769 H   0  0  0  0  0  0  0  0  0  0  0  0
   33.6252   35.9335   52.4353 H   0  0  0  0  0  0  0  0  0  0  0  0
   32.8642   36.1771   54.7620 H   0  0  0  0  0  0  0  0  0  0  0  0
   33.7061   40.2599   56.6648 H   0  0  0  0  0  0  0  0  0  0  0  0
  1  2  1  0  0  0  0
  1 21  1  0  0  0  0
  1 22  1  0  0  0  0
  1 23  1  0  0  0  0
  2  3  1  0  0  0  0
  3  4  2  0  0  0  0
  3  5  1  0  0  0  0
  5  6  1  0  0  0  0
  5 24  1  0  0  0  0
  5 25  1  0  0  0  0
  6  7  1  0  0  0  0
  6 26  1  0  0  0  0
  6 27  1  0  0  0  0
  7  8  2  0  0  0  0
  7  9  1  0  0  0  0
  9 10  1  0  0  0  0
  9 28  1  0  0  0  0
 10 20  1  0  0  0  0
 10 11  2  0  0  0  0
 11 12  1  0  0  0  0
 12 13  1  0  0  0  0
 12 19  2  0  0  0  0
 13 18  2  0  0  0  0
 13 14  1  0  0  0  0
 14 15  2  0  0  0  0
 14 29  1  0  0  0  0
 15 16  1  0  0  0  0
 15 30  1  0  0  0  0
 16 17  2  0  0  0  0
 16 31  1  0  0  0  0
 17 18  1  0  0  0  0
 17 32  1  0  0  0  0
 18 33  1  0  0  0  0
 19 20  1  0  0  0  0
 19 34  1  0  0  0  0
M  END
$$$$
