ZINC000000049514      none
 OpenBabel11202420153D

 40 43  0  0  0  0  0  0  0  0999 V2000
   28.3451   42.4088   69.1766 C   0  0  0  0  0  0  0  0  0  0  0  0
   29.6530   42.1167   68.4874 C   0  0  0  0  0  0  0  0  0  0  0  0
   30.7955   42.7243   68.8350 C   0  0  0  0  0  0  0  0  0  0  0  0
   30.9150   43.7007   69.8758 C   0  0  0  0  0  0  0  0  0  0  0  0
   31.0098   44.4751   70.7014 N   0  0  0  0  0  0  0  0  0  0  0  0
   32.1259   42.1566   67.8407 S   0  0  0  0  0  0  0  0  0  0  0  0
   31.0619   41.0813   66.9439 C   0  0  0  0  0  0  0  0  0  0  0  0
   31.3081   40.2376   65.9374 N   0  0  0  0  0  0  0  0  0  0  0  0
   30.3403   39.5136   65.4033 C   0  0  0  0  0  0  0  0  0  0  0  0
   30.6635   38.5922   64.2882 C   0  0  0  0  0  0  0  0  0  0  0  0
   30.5885   39.0367   62.9688 C   0  0  0  0  0  0  0  0  0  0  0  0
   30.8960   38.1758   61.9350 C   0  0  0  0  0  0  0  0  0  0  0  0
   31.2667   36.8707   62.2052 C   0  0  0  0  0  0  0  0  0  0  0  0
   31.3373   36.4223   63.5120 C   0  0  0  0  0  0  0  0  0  0  0  0
   31.0380   37.2757   64.5542 C   0  0  0  0  0  0  0  0  0  0  0  0
   29.0855   39.5872   65.8357 N   0  0  0  0  0  0  0  0  0  0  0  0
   28.7490   40.3946   66.8271 C   0  0  0  0  0  0  0  0  0  0  0  0
   27.4405   40.4585   67.2645 N   0  0  0  0  0  0  0  0  0  0  0  0
   27.0082   39.1693   67.8233 C   0  0  0  0  0  0  0  0  0  0  0  0
   25.5765   39.3015   68.3489 C   0  0  0  0  0  0  0  0  0  0  0  0
   24.7242   39.7456   67.2899 O   0  0  0  0  0  0  0  0  0  0  0  0
   25.1158   40.9988   66.7229 C   0  0  0  0  0  0  0  0  0  0  0  0
   26.5429   40.8839   66.1807 C   0  0  0  0  0  0  0  0  0  0  0  0
   29.7549   41.1974   67.4382 C   0  0  0  0  0  0  0  0  0  0  0  0
   28.1713   41.6667   69.9558 H   0  0  0  0  0  0  0  0  0  0  0  0
   27.5342   42.3685   68.4492 H   0  0  0  0  0  0  0  0  0  0  0  0
   28.3835   43.4023   69.6231 H   0  0  0  0  0  0  0  0  0  0  0  0
   30.2950   40.0541   62.7565 H   0  0  0  0  0  0  0  0  0  0  0  0
   30.8433   38.5206   60.9128 H   0  0  0  0  0  0  0  0  0  0  0  0
   31.5021   36.1993   61.3927 H   0  0  0  0  0  0  0  0  0  0  0  0
   31.6274   35.4024   63.7168 H   0  0  0  0  0  0  0  0  0  0  0  0
   31.0942   36.9249   65.5741 H   0  0  0  0  0  0  0  0  0  0  0  0
   27.0415   38.4061   67.0457 H   0  0  0  0  0  0  0  0  0  0  0  0
   27.6715   38.8862   68.6407 H   0  0  0  0  0  0  0  0  0  0  0  0
   25.5531   40.0259   69.1630 H   0  0  0  0  0  0  0  0  0  0  0  0
   25.2309   38.3339   68.7128 H   0  0  0  0  0  0  0  0  0  0  0  0
   25.0790   41.7725   67.4896 H   0  0  0  0  0  0  0  0  0  0  0  0
   24.4376   41.2592   65.9102 H   0  0  0  0  0  0  0  0  0  0  0  0
   26.8665   41.8523   65.7991 H   0  0  0  0  0  0  0  0  0  0  0  0
   26.5694   40.1485   65.3764 H   0  0  0  0  0  0  0  0  0  0  0  0
  1  2  1  0  0  0  0
  1 25  1  0  0  0  0
  1 26  1  0  0  0  0
  1 27  1  0  0  0  0
  2 24  1  0  0  0  0
  2  3  2  0  0  0  0
  3  4  1  0  0  0  0
  3  6  1  0  0  0  0
  4  5  3  0  0  0  0
  6  7  1  0  0  0  0
  7 24  2  0  0  0  0
  7  8  1  0  0  0  0
  8  9  2  0  0  0  0
  9 10  1  0  0  0  0
  9 16  1  0  0  0  0
 10 15  2  0  0  0  0
 10 11  1  0  0  0  0
 11 12  2  0  0  0  0
 11 28  1  0  0  0  0
 12 13  1  0  0  0  0
 12 29  1  0  0  0  0
 13 14  2  0  0  0  0
 13 30  1  0  0  0  0
 14 15  1  0  0  0  0
 14 31  1  0  0  0  0
 15 32  1  0  0  0  0
 16 17  2  0  0  0  0
 17 18  1  0  0  0  0
 17 24  1  0  0  0  0
 18 23  1  0  0  0  0
 18 19  1  0  0  0  0
 19 20  1  0  0  0  0
 19 33  1  0  0  0  0
 19 34  1  0  0  0  0
 20 21  1  0  0  0  0
 20 35  1  0  0  0  0
 20 36  1  0  0  0  0
 21 22  1  0  0  0  0
 22 23  1  0  0  0  0
 22 37  1  0  0  0  0
 22 38  1  0  0  0  0
 23 39  1  0  0  0  0
 23 40  1  0  0  0  0
M  END
$$$$
