ZINC000000031327      none
 OpenBabel11202420163D

 25 26  0  0  0  0  0  0  0  0999 V2000
   29.5651   36.4973   60.4642 O   0  0  0  0  0  0  0  0  0  0  0  0
   30.7681   36.6556   60.5289 C   0  0  0  0  0  0  0  0  0  0  0  0
   31.5952   36.5524   59.3052 C   0  0  0  0  0  0  0  0  0  0  0  0
   32.1457   35.3282   58.9105 C   0  0  0  0  0  0  0  0  0  0  0  0
   32.9064   35.2765   57.7588 C   0  0  0  0  0  0  0  0  0  0  0  0
   33.1246   36.3613   57.0422 N   0  0  0  0  0  0  0  0  0  0  0  0
   32.6296   37.5352   57.3810 C   0  0  0  0  0  0  0  0  0  0  0  0
   31.8529   37.6773   58.5143 C   0  0  0  0  0  0  0  0  0  0  0  0
   31.4052   36.9509   61.8281 C   0  0  0  0  0  0  0  0  0  0  0  0
   32.3741   36.0881   62.3470 C   0  0  0  0  0  0  0  0  0  0  0  0
   32.9610   36.3674   63.5634 C   0  0  0  0  0  0  0  0  0  0  0  0
   32.6008   37.5051   64.2643 C   0  0  0  0  0  0  0  0  0  0  0  0
   33.2393   37.8010   65.5663 N   0  0  0  0  0  0  0  0  0  0  0  0
   34.0796   37.0439   66.0186 O   0  0  0  0  0  0  0  0  0  0  0  0
   32.9246   38.8015   66.1857 O   0  0  0  0  0  0  0  0  0  0  0  0
   31.6419   38.3642   63.7564 C   0  0  0  0  0  0  0  0  0  0  0  0
   31.0424   38.0946   62.5440 C   0  0  0  0  0  0  0  0  0  0  0  0
   31.9752   34.4364   59.4953 H   0  0  0  0  0  0  0  0  0  0  0  0
   33.3320   34.3354   57.4432 H   0  0  0  0  0  0  0  0  0  0  0  0
   32.8345   38.3977   56.7641 H   0  0  0  0  0  0  0  0  0  0  0  0
   31.4509   38.6422   58.7859 H   0  0  0  0  0  0  0  0  0  0  0  0
   32.6593   35.2023   61.7989 H   0  0  0  0  0  0  0  0  0  0  0  0
   33.7068   35.6990   63.9677 H   0  0  0  0  0  0  0  0  0  0  0  0
   31.3622   39.2478   64.3110 H   0  0  0  0  0  0  0  0  0  0  0  0
   30.2939   38.7657   62.1490 H   0  0  0  0  0  0  0  0  0  0  0  0
  1  2  2  0  0  0  0
  2  3  1  0  0  0  0
  2  9  1  0  0  0  0
  3  8  2  0  0  0  0
  3  4  1  0  0  0  0
  4  5  2  0  0  0  0
  4 18  1  0  0  0  0
  5  6  1  0  0  0  0
  5 19  1  0  0  0  0
  6  7  2  0  0  0  0
  7  8  1  0  0  0  0
  7 20  1  0  0  0  0
  8 21  1  0  0  0  0
  9 17  2  0  0  0  0
  9 10  1  0  0  0  0
 10 11  2  0  0  0  0
 10 22  1  0  0  0  0
 11 12  1  0  0  0  0
 11 23  1  0  0  0  0
 12 13  1  0  0  0  0
 12 16  2  0  0  0  0
 13 14  2  0  0  0  0
 13 15  2  0  0  0  0
 16 17  1  0  0  0  0
 16 24  1  0  0  0  0
 17 25  1  0  0  0  0
M  END
$$$$
