ZINC000000029027      none
 OpenBabel11202420163D

 44 47  0  0  0  0  0  0  0  0999 V2000
   33.8395   40.1017   56.9581 N   0  0  0  0  0  0  0  0  0  0  0  0
   33.5382   39.0169   57.1089 C   0  0  0  0  0  0  0  0  0  0  0  0
   33.1584   37.6493   57.2992 C   0  0  0  0  0  0  0  0  0  0  0  0
   32.6684   37.0903   58.4416 C   0  0  0  0  0  0  0  0  0  0  0  0
   32.4241   35.7707   58.2382 N   0  0  0  0  0  0  0  0  0  0  0  0
   31.8919   34.8532   59.2487 C   0  0  0  0  0  0  0  0  0  0  0  0
   30.7404   35.5093   59.9662 C   0  0  0  0  0  0  0  0  0  0  0  0
   29.6104   35.3786   59.5456 O   0  0  0  0  0  0  0  0  0  0  0  0
   30.9671   36.2455   61.0721 N   0  0  0  0  0  0  0  0  0  0  0  0
   29.8484   36.8882   61.7662 C   0  0  0  0  0  0  0  0  0  0  0  0
   29.7712   36.3655   63.2020 C   0  0  0  0  0  0  0  0  0  0  0  0
   31.0570   36.6816   63.9216 C   0  0  0  0  0  0  0  0  0  0  0  0
   32.1483   35.9025   63.9859 C   0  0  0  0  0  0  0  0  0  0  0  0
   33.1204   36.5217   64.7236 N   0  0  0  0  0  0  0  0  0  0  0  0
   33.9993   36.1545   64.9073 H   0  0  0  0  0  0  0  0  0  0  0  0
   32.6632   37.7408   65.1712 C   0  0  0  0  0  0  0  0  0  0  0  0
   33.2268   38.7493   65.9465 C   0  0  0  0  0  0  0  0  0  0  0  0
   32.4965   39.8820   66.2316 C   0  0  0  0  0  0  0  0  0  0  0  0
   31.2018   40.0290   65.7528 C   0  0  0  0  0  0  0  0  0  0  0  0
   30.6289   39.0511   64.9897 C   0  0  0  0  0  0  0  0  0  0  0  0
   31.3509   37.8946   64.6885 C   0  0  0  0  0  0  0  0  0  0  0  0
   32.7536   35.4148   56.9470 C   0  0  0  0  0  0  0  0  0  0  0  0
   32.6888   34.2159   56.2439 C   0  0  0  0  0  0  0  0  0  0  0  0
   33.0915   34.1684   54.9274 C   0  0  0  0  0  0  0  0  0  0  0  0
   33.5586   35.3087   54.2893 C   0  0  0  0  0  0  0  0  0  0  0  0
   33.6253   36.5063   54.9665 C   0  0  0  0  0  0  0  0  0  0  0  0
   33.2210   36.5689   56.2981 C   0  0  0  0  0  0  0  0  0  0  0  0
   32.5002   37.6177   59.3690 H   0  0  0  0  0  0  0  0  0  0  0  0
   32.6754   34.6089   59.9662 H   0  0  0  0  0  0  0  0  0  0  0  0
   31.5455   33.9404   58.7641 H   0  0  0  0  0  0  0  0  0  0  0  0
   31.8710   36.3498   61.4084 H   0  0  0  0  0  0  0  0  0  0  0  0
   30.0011   37.9673   61.7801 H   0  0  0  0  0  0  0  0  0  0  0  0
   28.9184   36.6594   61.2457 H   0  0  0  0  0  0  0  0  0  0  0  0
   28.9388   36.8437   63.7185 H   0  0  0  0  0  0  0  0  0  0  0  0
   29.6185   35.2864   63.1881 H   0  0  0  0  0  0  0  0  0  0  0  0
   32.2456   34.9321   63.5223 H   0  0  0  0  0  0  0  0  0  0  0  0
   34.2332   38.6442   66.3239 H   0  0  0  0  0  0  0  0  0  0  0  0
   32.9360   40.6638   66.8333 H   0  0  0  0  0  0  0  0  0  0  0  0
   30.6430   40.9234   65.9852 H   0  0  0  0  0  0  0  0  0  0  0  0
   29.6210   39.1722   64.6210 H   0  0  0  0  0  0  0  0  0  0  0  0
   32.3275   33.3223   56.7313 H   0  0  0  0  0  0  0  0  0  0  0  0
   33.0434   33.2347   54.3867 H   0  0  0  0  0  0  0  0  0  0  0  0
   33.8717   35.2568   53.2569 H   0  0  0  0  0  0  0  0  0  0  0  0
   33.9889   37.3924   54.4675 H   0  0  0  0  0  0  0  0  0  0  0  0
  1  2  3  0  0  0  0
  2  3  1  0  0  0  0
  3 27  1  0  0  0  0
  3  4  2  0  0  0  0
  4  5  1  0  0  0  0
  4 28  1  0  0  0  0
  5  6  1  0  0  0  0
  5 22  1  0  0  0  0
  6  7  1  0  0  0  0
  6 29  1  0  0  0  0
  6 30  1  0  0  0  0
  7  8  2  0  0  0  0
  7  9  1  0  0  0  0
  9 10  1  0  0  0  0
  9 31  1  0  0  0  0
 10 11  1  0  0  0  0
 10 32  1  0  0  0  0
 10 33  1  0  0  0  0
 11 12  1  0  0  0  0
 11 34  1  0  0  0  0
 11 35  1  0  0  0  0
 12 21  1  0  0  0  0
 12 13  2  0  0  0  0
 13 14  1  0  0  0  0
 13 36  1  0  0  0  0
 14 15  1  0  0  0  0
 14 16  1  0  0  0  0
 16 21  2  0  0  0  0
 16 17  1  0  0  0  0
 17 18  2  0  0  0  0
 17 37  1  0  0  0  0
 18 19  1  0  0  0  0
 18 38  1  0  0  0  0
 19 20  2  0  0  0  0
 19 39  1  0  0  0  0
 20 21  1  0  0  0  0
 20 40  1  0  0  0  0
 22 27  2  0  0  0  0
 22 23  1  0  0  0  0
 23 24  2  0  0  0  0
 23 41  1  0  0  0  0
 24 25  1  0  0  0  0
 24 42  1  0  0  0  0
 25 26  2  0  0  0  0
 25 43  1  0  0  0  0
 26 27  1  0  0  0  0
 26 44  1  0  0  0  0
M  END
$$$$
