ZINC000000038177      none
 OpenBabel11202420153D

 37 40  0  0  1  0  0  0  0  0999 V2000
   33.4753   40.1527   57.6343 C   0  0  0  0  0  0  0  0  0  0  0  0
   33.2338   38.6703   57.7567 C   0  0  0  0  0  0  0  0  0  0  0  0
   32.7665   38.0480   58.8092 N   0  0  0  0  0  0  0  0  0  0  0  0
   32.6851   36.6748   58.5329 N   0  0  0  0  0  0  0  0  0  0  0  0
   32.2330   35.6892   59.4154 C   0  0  0  0  0  0  0  0  0  0  0  0
   31.8104   36.0477   60.6896 C   0  0  0  0  0  0  0  0  0  0  0  0
   31.3648   35.0621   61.5533 C   0  0  0  0  0  0  0  0  0  0  0  0
   31.3578   33.7470   61.1098 C   0  0  0  0  0  0  0  0  0  0  0  0
   31.7923   33.4631   59.8296 C   0  0  0  0  0  0  0  0  0  0  0  0
   32.2066   34.4245   59.0275 N   0  0  0  0  0  0  0  0  0  0  0  0
   33.1116   36.4685   57.2847 C   0  0  0  0  0  0  0  0  0  0  0  0
   33.4692   37.7095   56.7646 C   0  0  0  0  0  0  0  0  0  0  0  0
   33.9909   37.8480   55.3957 C   0  0  0  0  0  0  0  0  0  0  0  0
   34.1200   38.9259   54.8543 O   0  0  0  0  0  0  0  0  0  0  0  0
   34.3628   36.5411   54.7111 C   0  0  0  0  0  0  0  0  0  0  0  0
   33.2691   35.5101   55.0066 C   0  0  1  0  0  0  0  0  0  0  0  0
   32.3044   35.9104   54.6950 H   0  0  0  0  0  0  0  0  0  0  0  0
   33.5554   34.2476   54.2352 C   0  0  0  0  0  0  0  0  0  0  0  0
   32.7495   33.6882   53.3148 C   0  0  0  0  0  0  0  0  0  0  0  0
   33.4067   32.5274   52.8461 C   0  0  0  0  0  0  0  0  0  0  0  0
   34.5712   32.4425   53.5142 C   0  0  0  0  0  0  0  0  0  0  0  0
   34.6559   33.4869   54.3540 O   0  0  0  0  0  0  0  0  0  0  0  0
   33.2214   35.1862   56.5030 C   0  0  0  0  0  0  0  0  0  0  0  0
   34.4914   40.3830   57.9552 H   0  0  0  0  0  0  0  0  0  0  0  0
   33.3443   40.4577   56.5961 H   0  0  0  0  0  0  0  0  0  0  0  0
   32.7652   40.6898   58.2631 H   0  0  0  0  0  0  0  0  0  0  0  0
   31.8290   37.0814   61.0017 H   0  0  0  0  0  0  0  0  0  0  0  0
   31.0306   35.3108   62.5497 H   0  0  0  0  0  0  0  0  0  0  0  0
   31.0166   32.9539   61.7587 H   0  0  0  0  0  0  0  0  0  0  0  0
   31.7891   32.4414   59.4799 H   0  0  0  0  0  0  0  0  0  0  0  0
   34.4360   36.6993   53.6351 H   0  0  0  0  0  0  0  0  0  0  0  0
   35.3190   36.1858   55.0950 H   0  0  0  0  0  0  0  0  0  0  0  0
   31.7864   34.0565   52.9938 H   0  0  0  0  0  0  0  0  0  0  0  0
   33.0418   31.8388   52.0985 H   0  0  0  0  0  0  0  0  0  0  0  0
   35.3122   31.6656   53.3954 H   0  0  0  0  0  0  0  0  0  0  0  0
   32.3561   34.5572   56.7121 H   0  0  0  0  0  0  0  0  0  0  0  0
   34.1318   34.6604   56.7909 H   0  0  0  0  0  0  0  0  0  0  0  0
  1  2  1  0  0  0  0
  1 24  1  0  0  0  0
  1 25  1  0  0  0  0
  1 26  1  0  0  0  0
  2 12  1  0  0  0  0
  2  3  2  0  0  0  0
  3  4  1  0  0  0  0
  4  5  1  0  0  0  0
  4 11  1  0  0  0  0
  5 10  2  0  0  0  0
  5  6  1  0  0  0  0
  6  7  2  0  0  0  0
  6 27  1  0  0  0  0
  7  8  1  0  0  0  0
  7 28  1  0  0  0  0
  8  9  2  0  0  0  0
  8 29  1  0  0  0  0
  9 10  1  0  0  0  0
  9 30  1  0  0  0  0
 11 23  1  0  0  0  0
 11 12  2  0  0  0  0
 12 13  1  0  0  0  0
 13 14  2  0  0  0  0
 13 15  1  0  0  0  0
 15 16  1  0  0  0  0
 15 31  1  0  0  0  0
 15 32  1  0  0  0  0
 16 17  1  6  0  0  0
 16 18  1  0  0  0  0
 16 23  1  0  0  0  0
 18 22  1  0  0  0  0
 18 19  2  0  0  0  0
 19 20  1  0  0  0  0
 19 33  1  0  0  0  0
 20 21  2  0  0  0  0
 20 34  1  0  0  0  0
 21 22  1  0  0  0  0
 21 35  1  0  0  0  0
 23 36  1  0  0  0  0
 23 37  1  0  0  0  0
M  END
$$$$
