ZINC000000032773      none
 OpenBabel11202420153D

 28 29  0  0  0  0  0  0  0  0999 V2000
   30.2159   36.7899   60.7337 N   0  0  0  0  0  0  0  0  0  0  0  0
   30.1589   37.3468   61.9993 C   0  0  0  0  0  0  0  0  0  0  0  0
   29.9500   38.6126   62.2868 N   0  0  0  0  0  0  0  0  0  0  0  0
   29.9581   38.7924   63.5584 N   0  0  0  0  0  0  0  0  0  0  0  0
   30.1629   37.6748   64.1671 N   0  0  0  0  0  0  0  0  0  0  0  0
   30.3079   36.6910   63.1733 N   0  0  0  0  0  0  0  0  0  0  0  0
   30.5600   35.2610   63.3676 C   0  0  0  0  0  0  0  0  0  0  0  0
   31.6290   34.8045   62.4085 C   0  0  0  0  0  0  0  0  0  0  0  0
   32.7917   34.8474   62.7347 O   0  0  0  0  0  0  0  0  0  0  0  0
   31.2892   34.3447   61.1940 O   0  0  0  0  0  0  0  0  0  0  0  0
   32.3708   33.9162   60.3251 C   0  0  0  0  0  0  0  0  0  0  0  0
   31.8020   33.4355   59.0149 C   0  0  0  0  0  0  0  0  0  0  0  0
   30.7038   32.5956   59.0047 C   0  0  0  0  0  0  0  0  0  0  0  0
   30.1783   32.1589   57.8032 C   0  0  0  0  0  0  0  0  0  0  0  0
   30.7584   32.5523   56.6112 C   0  0  0  0  0  0  0  0  0  0  0  0
   31.8596   33.3884   56.6214 C   0  0  0  0  0  0  0  0  0  0  0  0
   32.6521   33.9279   54.9913 Br  0  0  0  0  0  0  0  0  0  0  0  0
   32.3817   33.8297   57.8240 C   0  0  0  0  0  0  0  0  0  0  0  0
   30.3763   35.8391   60.6291 H   0  0  0  0  0  0  0  0  0  0  0  0
   30.0953   37.3504   59.9513 H   0  0  0  0  0  0  0  0  0  0  0  0
   29.6428   34.7018   63.1823 H   0  0  0  0  0  0  0  0  0  0  0  0
   30.8914   35.0862   64.3912 H   0  0  0  0  0  0  0  0  0  0  0  0
   33.0444   34.7536   60.1434 H   0  0  0  0  0  0  0  0  0  0  0  0
   32.9203   33.1047   60.8022 H   0  0  0  0  0  0  0  0  0  0  0  0
   30.2538   32.2842   59.9358 H   0  0  0  0  0  0  0  0  0  0  0  0
   29.3179   31.5064   57.7956 H   0  0  0  0  0  0  0  0  0  0  0  0
   30.3494   32.2082   55.6728 H   0  0  0  0  0  0  0  0  0  0  0  0
   33.2421   34.4825   57.8322 H   0  0  0  0  0  0  0  0  0  0  0  0
  1  2  1  0  0  0  0
  1 19  1  0  0  0  0
  1 20  1  0  0  0  0
  2  6  1  0  0  0  0
  2  3  2  0  0  0  0
  3  4  1  0  0  0  0
  4  5  2  0  0  0  0
  5  6  1  0  0  0  0
  6  7  1  0  0  0  0
  7  8  1  0  0  0  0
  7 21  1  0  0  0  0
  7 22  1  0  0  0  0
  8  9  2  0  0  0  0
  8 10  1  0  0  0  0
 10 11  1  0  0  0  0
 11 12  1  0  0  0  0
 11 23  1  0  0  0  0
 11 24  1  0  0  0  0
 12 18  2  0  0  0  0
 12 13  1  0  0  0  0
 13 14  2  0  0  0  0
 13 25  1  0  0  0  0
 14 15  1  0  0  0  0
 14 26  1  0  0  0  0
 15 16  2  0  0  0  0
 15 27  1  0  0  0  0
 16 17  1  0  0  0  0
 16 18  1  0  0  0  0
 18 28  1  0  0  0  0
M  END
$$$$
