ZINC000000048617      none
 OpenBabel11202420153D

 37 39  0  0  0  0  0  0  0  0999 V2000
   33.4144   40.6715   58.8836 N   0  0  0  0  0  0  0  0  0  0  0  0
   33.4463   39.5118   58.1975 C   0  0  0  0  0  0  0  0  0  0  0  0
   34.0280   39.4519   57.1313 O   0  0  0  0  0  0  0  0  0  0  0  0
   32.7757   38.3151   58.7402 C   0  0  0  0  0  0  0  0  0  0  0  0
   32.8074   37.1118   58.0296 C   0  0  0  0  0  0  0  0  0  0  0  0
   32.1805   35.9972   58.5381 C   0  0  0  0  0  0  0  0  0  0  0  0
   31.5148   36.0676   59.7589 C   0  0  0  0  0  0  0  0  0  0  0  0
   30.8819   34.9399   60.2698 N   0  0  0  0  0  0  0  0  0  0  0  0
   31.7125   33.8988   61.2540 S   0  0  0  0  0  0  0  0  0  0  0  0
   33.0903   34.0773   60.9553 O   0  0  0  0  0  0  0  0  0  0  0  0
   31.0529   32.6438   61.1582 O   0  0  0  0  0  0  0  0  0  0  0  0
   31.4865   34.4547   62.9106 C   0  0  0  0  0  0  0  0  0  0  0  0
   30.4212   33.9855   63.6567 C   0  0  0  0  0  0  0  0  0  0  0  0
   30.2393   34.4207   64.9555 C   0  0  0  0  0  0  0  0  0  0  0  0
   31.1223   35.3341   65.5124 C   0  0  0  0  0  0  0  0  0  0  0  0
   32.1977   35.7996   64.7653 C   0  0  0  0  0  0  0  0  0  0  0  0
   32.3741   35.3591   63.4619 C   0  0  0  0  0  0  0  0  0  0  0  0
   33.0823   36.6875   65.2959 O   0  0  0  0  0  0  0  0  0  0  0  0
   32.6630   37.3895   66.4712 C   0  0  0  0  0  0  0  0  0  0  0  0
   32.0443   36.3748   67.4423 C   0  0  0  0  0  0  0  0  0  0  0  0
   30.9293   35.7548   66.7924 O   0  0  0  0  0  0  0  0  0  0  0  0
   31.4766   37.2660   60.4662 C   0  0  0  0  0  0  0  0  0  0  0  0
   32.1068   38.3824   59.9658 C   0  0  0  0  0  0  0  0  0  0  0  0
   32.9505   40.7193   59.7341 H   0  0  0  0  0  0  0  0  0  0  0  0
   33.8554   41.4584   58.5268 H   0  0  0  0  0  0  0  0  0  0  0  0
   33.3231   37.0568   57.0822 H   0  0  0  0  0  0  0  0  0  0  0  0
   32.2047   35.0673   57.9897 H   0  0  0  0  0  0  0  0  0  0  0  0
   29.9539   34.7631   60.0500 H   0  0  0  0  0  0  0  0  0  0  0  0
   29.7298   33.2781   63.2233 H   0  0  0  0  0  0  0  0  0  0  0  0
   29.4065   34.0527   65.5362 H   0  0  0  0  0  0  0  0  0  0  0  0
   33.2057   35.7237   62.8771 H   0  0  0  0  0  0  0  0  0  0  0  0
   33.5226   37.8692   66.9392 H   0  0  0  0  0  0  0  0  0  0  0  0
   31.9213   38.1424   66.2045 H   0  0  0  0  0  0  0  0  0  0  0  0
   32.7842   35.6186   67.7043 H   0  0  0  0  0  0  0  0  0  0  0  0
   31.7065   36.8871   68.3431 H   0  0  0  0  0  0  0  0  0  0  0  0
   30.9556   37.3186   61.4108 H   0  0  0  0  0  0  0  0  0  0  0  0
   32.0805   39.3107   60.5173 H   0  0  0  0  0  0  0  0  0  0  0  0
  1  2  1  0  0  0  0
  1 24  1  0  0  0  0
  1 25  1  0  0  0  0
  2  3  2  0  0  0  0
  2  4  1  0  0  0  0
  4 23  2  0  0  0  0
  4  5  1  0  0  0  0
  5  6  2  0  0  0  0
  5 26  1  0  0  0  0
  6  7  1  0  0  0  0
  6 27  1  0  0  0  0
  7  8  1  0  0  0  0
  7 22  2  0  0  0  0
  8  9  1  0  0  0  0
  8 28  1  0  0  0  0
  9 10  2  0  0  0  0
  9 11  2  0  0  0  0
  9 12  1  0  0  0  0
 12 17  2  0  0  0  0
 12 13  1  0  0  0  0
 13 14  2  0  0  0  0
 13 29  1  0  0  0  0
 14 15  1  0  0  0  0
 14 30  1  0  0  0  0
 15 21  1  0  0  0  0
 15 16  2  0  0  0  0
 16 17  1  0  0  0  0
 16 18  1  0  0  0  0
 17 31  1  0  0  0  0
 18 19  1  0  0  0  0
 19 20  1  0  0  0  0
 19 32  1  0  0  0  0
 19 33  1  0  0  0  0
 20 21  1  0  0  0  0
 20 34  1  0  0  0  0
 20 35  1  0  0  0  0
 22 23  1  0  0  0  0
 22 36  1  0  0  0  0
 23 37  1  0  0  0  0
M  END
$$$$
