ZINC000000034217      none
 OpenBabel11202420153D

 31 32  0  0  0  0  0  0  0  0999 V2000
   32.5197   35.3306   52.6295 C   0  0  0  0  0  0  0  0  0  0  0  0
   33.3949   36.4157   53.2598 C   0  0  0  0  0  0  0  0  0  0  0  0
   33.0119   36.6007   54.6481 O   0  0  0  0  0  0  0  0  0  0  0  0
   33.6914   37.5283   55.3523 C   0  0  0  0  0  0  0  0  0  0  0  0
   34.5799   38.1651   54.8199 O   0  0  0  0  0  0  0  0  0  0  0  0
   33.3625   37.7651   56.7631 C   0  0  0  0  0  0  0  0  0  0  0  0
   33.5114   38.9685   57.3688 C   0  0  0  0  0  0  0  0  0  0  0  0
   34.0284   40.2050   56.6798 C   0  0  0  0  0  0  0  0  0  0  0  0
   33.0422   38.9103   59.0033 S   0  0  0  0  0  0  0  0  0  0  0  0
   32.6190   37.2073   58.9117 C   0  0  0  0  0  0  0  0  0  0  0  0
   32.1189   36.1285   59.6892 C   0  0  0  0  0  0  0  0  0  0  0  0
   31.7299   36.1871   61.1440 C   0  0  0  0  0  0  0  0  0  0  0  0
   32.0545   35.0470   58.8949 C   0  0  0  0  0  0  0  0  0  0  0  0
   31.5780   33.6803   59.3143 C   0  0  0  0  0  0  0  0  0  0  0  0
   32.4907   35.3859   57.6459 N   0  0  0  0  0  0  0  0  0  0  0  0
   32.5445   34.7878   56.8842 H   0  0  0  0  0  0  0  0  0  0  0  0
   32.8387   36.7302   57.6458 C   0  0  0  0  0  0  0  0  0  0  0  0
   31.4735   35.6324   52.6806 H   0  0  0  0  0  0  0  0  0  0  0  0
   32.8072   35.1917   51.5874 H   0  0  0  0  0  0  0  0  0  0  0  0
   32.6546   34.3946   53.1715 H   0  0  0  0  0  0  0  0  0  0  0  0
   33.2600   37.3517   52.7178 H   0  0  0  0  0  0  0  0  0  0  0  0
   34.4410   36.1138   53.2088 H   0  0  0  0  0  0  0  0  0  0  0  0
   33.1933   40.7560   56.2472 H   0  0  0  0  0  0  0  0  0  0  0  0
   34.5437   40.8359   57.4040 H   0  0  0  0  0  0  0  0  0  0  0  0
   34.7222   39.9176   55.8898 H   0  0  0  0  0  0  0  0  0  0  0  0
   30.6764   36.4537   61.2279 H   0  0  0  0  0  0  0  0  0  0  0  0
   31.8958   35.2128   61.6039 H   0  0  0  0  0  0  0  0  0  0  0  0
   32.3361   36.9368   61.6522 H   0  0  0  0  0  0  0  0  0  0  0  0
   30.5033   33.6036   59.1491 H   0  0  0  0  0  0  0  0  0  0  0  0
   32.0913   32.9199   58.7257 H   0  0  0  0  0  0  0  0  0  0  0  0
   31.7947   33.5287   60.3718 H   0  0  0  0  0  0  0  0  0  0  0  0
  1  2  1  0  0  0  0
  1 18  1  0  0  0  0
  1 19  1  0  0  0  0
  1 20  1  0  0  0  0
  2  3  1  0  0  0  0
  2 21  1  0  0  0  0
  2 22  1  0  0  0  0
  3  4  1  0  0  0  0
  4  5  2  0  0  0  0
  4  6  1  0  0  0  0
  6 17  1  0  0  0  0
  6  7  2  0  0  0  0
  7  8  1  0  0  0  0
  7  9  1  0  0  0  0
  8 23  1  0  0  0  0
  8 24  1  0  0  0  0
  8 25  1  0  0  0  0
  9 10  1  0  0  0  0
 10 17  2  0  0  0  0
 10 11  1  0  0  0  0
 11 12  1  0  0  0  0
 11 13  2  0  0  0  0
 12 26  1  0  0  0  0
 12 27  1  0  0  0  0
 12 28  1  0  0  0  0
 13 14  1  0  0  0  0
 13 15  1  0  0  0  0
 14 29  1  0  0  0  0
 14 30  1  0  0  0  0
 14 31  1  0  0  0  0
 15 16  1  0  0  0  0
 15 17  1  0  0  0  0
M  END
$$$$
