ZINC000000033245      none
 OpenBabel11202420153D

 28 28  0  0  0  0  0  0  0  0999 V2000
   33.8631   35.6201   55.6243 C   0  0  0  0  0  0  0  0  0  0  0  0
   33.3462   36.2803   56.8765 C   0  0  0  0  0  0  0  0  0  0  0  0
   32.6999   35.6389   57.6777 O   0  0  0  0  0  0  0  0  0  0  0  0
   33.6024   37.5834   57.1062 N   0  0  0  0  0  0  0  0  0  0  0  0
   33.1229   38.1959   58.2682 C   0  0  0  0  0  0  0  0  0  0  0  0
   33.3071   39.4506   58.5989 N   0  0  0  0  0  0  0  0  0  0  0  0
   32.6639   39.6485   59.8312 N   0  0  0  0  0  0  0  0  0  0  0  0
   32.6207   40.4745   60.3378 H   0  0  0  0  0  0  0  0  0  0  0  0
   32.1174   38.4615   60.1719 C   0  0  0  0  0  0  0  0  0  0  0  0
   31.1870   38.1297   61.6310 S   0  0  0  0  0  0  0  0  0  0  0  0
   30.8135   36.3774   61.3738 C   0  0  0  0  0  0  0  0  0  0  0  0
   31.9218   35.5235   61.9933 C   0  0  0  0  0  0  0  0  0  0  0  0
   32.0093   35.8116   63.4934 C   0  0  0  0  0  0  0  0  0  0  0  0
   31.6061   34.0423   61.7760 C   0  0  0  0  0  0  0  0  0  0  0  0
   32.4019   37.5961   59.2213 N   0  0  0  0  0  0  0  0  0  0  0  0
   34.8524   35.2041   55.8146 H   0  0  0  0  0  0  0  0  0  0  0  0
   33.1837   34.8207   55.3281 H   0  0  0  0  0  0  0  0  0  0  0  0
   33.9268   36.3578   54.8244 H   0  0  0  0  0  0  0  0  0  0  0  0
   34.1193   38.0963   56.4655 H   0  0  0  0  0  0  0  0  0  0  0  0
   29.8615   36.1357   61.8464 H   0  0  0  0  0  0  0  0  0  0  0  0
   30.7512   36.1721   60.3051 H   0  0  0  0  0  0  0  0  0  0  0  0
   32.8737   35.7652   61.5208 H   0  0  0  0  0  0  0  0  0  0  0  0
   31.0572   35.5699   63.9659 H   0  0  0  0  0  0  0  0  0  0  0  0
   32.7988   35.2033   63.9347 H   0  0  0  0  0  0  0  0  0  0  0  0
   32.2342   36.8668   63.6482 H   0  0  0  0  0  0  0  0  0  0  0  0
   32.3956   33.4340   62.2173 H   0  0  0  0  0  0  0  0  0  0  0  0
   30.6540   33.8006   62.2486 H   0  0  0  0  0  0  0  0  0  0  0  0
   31.5437   33.8371   60.7074 H   0  0  0  0  0  0  0  0  0  0  0  0
  1  2  1  0  0  0  0
  1 16  1  0  0  0  0
  1 17  1  0  0  0  0
  1 18  1  0  0  0  0
  2  3  2  0  0  0  0
  2  4  1  0  0  0  0
  4  5  1  0  0  0  0
  4 19  1  0  0  0  0
  5 15  1  0  0  0  0
  5  6  2  0  0  0  0
  6  7  1  0  0  0  0
  7  8  1  0  0  0  0
  7  9  1  0  0  0  0
  9 10  1  0  0  0  0
  9 15  2  0  0  0  0
 10 11  1  0  0  0  0
 11 12  1  0  0  0  0
 11 20  1  0  0  0  0
 11 21  1  0  0  0  0
 12 13  1  0  0  0  0
 12 14  1  0  0  0  0
 12 22  1  0  0  0  0
 13 23  1  0  0  0  0
 13 24  1  0  0  0  0
 13 25  1  0  0  0  0
 14 26  1  0  0  0  0
 14 27  1  0  0  0  0
 14 28  1  0  0  0  0
M  END
$$$$
