ZINC000000056790      none
 OpenBabel11202420153D

 30 31  0  0  1  0  0  0  0  0999 V2000
   33.4762   40.1311   57.1679 C   0  0  0  0  0  0  0  0  0  0  0  0
   33.2574   38.6661   57.4449 C   0  0  0  0  0  0  0  0  0  0  0  0
   32.6996   38.2655   58.6074 C   0  0  0  0  0  0  0  0  0  0  0  0
   32.5078   36.9312   58.8426 N   0  0  0  0  0  0  0  0  0  0  0  0
   31.9022   36.4966   60.1038 C   0  0  2  0  0  0  0  0  0  0  0  0
   32.2727   35.5113   60.3867 H   0  0  0  0  0  0  0  0  0  0  0  0
   30.3562   36.4868   59.9921 C   0  0  0  0  0  0  0  0  0  0  0  0
   29.9233   36.6465   61.4698 C   0  0  1  0  0  0  0  0  0  0  0  0
   29.0715   37.3222   61.5469 H   0  0  0  0  0  0  0  0  0  0  0  0
   29.6139   35.4010   62.0267 F   0  0  0  0  0  0  0  0  0  0  0  0
   31.1586   37.2548   62.1618 C   0  0  2  0  0  0  0  0  0  0  0  0
   31.5343   36.5680   62.9202 H   0  0  0  0  0  0  0  0  0  0  0  0
   30.7886   38.5928   62.8048 C   0  0  0  0  0  0  0  0  0  0  0  0
   29.7589   38.3870   63.7740 O   0  0  0  0  0  0  0  0  0  0  0  0
   32.1583   37.4590   61.1491 O   0  0  0  0  0  0  0  0  0  0  0  0
   32.8696   36.0149   57.9264 C   0  0  0  0  0  0  0  0  0  0  0  0
   32.6900   34.8345   58.1559 O   0  0  0  0  0  0  0  0  0  0  0  0
   33.4280   36.3864   56.7595 N   0  0  0  0  0  0  0  0  0  0  0  0
   33.6833   35.7127   56.1100 H   0  0  0  0  0  0  0  0  0  0  0  0
   33.6343   37.6913   56.4898 C   0  0  0  0  0  0  0  0  0  0  0  0
   34.1403   38.0284   55.4346 O   0  0  0  0  0  0  0  0  0  0  0  0
   34.4617   40.4259   57.5283 H   0  0  0  0  0  0  0  0  0  0  0  0
   33.4130   40.3114   56.0947 H   0  0  0  0  0  0  0  0  0  0  0  0
   32.7122   40.7159   57.6801 H   0  0  0  0  0  0  0  0  0  0  0  0
   32.4024   38.9949   59.3463 H   0  0  0  0  0  0  0  0  0  0  0  0
   30.0044   37.3252   59.3910 H   0  0  0  0  0  0  0  0  0  0  0  0
   30.0018   35.5410   59.5824 H   0  0  0  0  0  0  0  0  0  0  0  0
   31.6666   39.0169   63.2920 H   0  0  0  0  0  0  0  0  0  0  0  0
   30.4323   39.2789   62.0364 H   0  0  0  0  0  0  0  0  0  0  0  0
   30.0067   37.7854   64.4894 H   0  0  0  0  0  0  0  0  0  0  0  0
  1  2  1  0  0  0  0
  1 22  1  0  0  0  0
  1 23  1  0  0  0  0
  1 24  1  0  0  0  0
  2 20  1  0  0  0  0
  2  3  2  0  0  0  0
  3  4  1  0  0  0  0
  3 25  1  0  0  0  0
  4  5  1  0  0  0  0
  4 16  1  0  0  0  0
  5  6  1  1  0  0  0
  5 15  1  0  0  0  0
  5  7  1  0  0  0  0
  7  8  1  0  0  0  0
  7 26  1  0  0  0  0
  7 27  1  0  0  0  0
  8  9  1  1  0  0  0
  8 10  1  0  0  0  0
  8 11  1  0  0  0  0
 11 12  1  1  0  0  0
 11 13  1  0  0  0  0
 11 15  1  0  0  0  0
 13 14  1  0  0  0  0
 13 28  1  0  0  0  0
 13 29  1  0  0  0  0
 14 30  1  0  0  0  0
 16 17  2  0  0  0  0
 16 18  1  0  0  0  0
 18 19  1  0  0  0  0
 18 20  1  0  0  0  0
 20 21  2  0  0  0  0
M  END
$$$$
