ZINC000000013140      none
 OpenBabel11202420153D

 33 34  0  0  0  0  0  0  0  0999 V2000
   33.1595   39.3705   57.9880 C   0  0  0  0  0  0  0  0  0  0  0  0
   32.7004   38.1869   58.8000 C   0  0  0  0  0  0  0  0  0  0  0  0
   32.6712   36.9960   58.2364 N   0  0  0  0  0  0  0  0  0  0  0  0
   32.2741   35.9289   58.9150 C   0  0  0  0  0  0  0  0  0  0  0  0
   31.8864   36.0742   60.2327 C   0  0  0  0  0  0  0  0  0  0  0  0
   31.9294   37.3496   60.7993 C   0  0  0  0  0  0  0  0  0  0  0  0
   31.5502   37.5474   62.1170 N   0  0  0  0  0  0  0  0  0  0  0  0
   30.1254   37.2433   62.3060 C   0  0  0  0  0  0  0  0  0  0  0  0
   29.7041   37.6446   63.7237 C   0  0  0  0  0  0  0  0  0  0  0  0
   30.6116   36.9956   64.6821 N   0  0  0  0  0  0  0  0  0  0  0  0
   30.0171   36.1238   65.9584 S   0  0  0  0  0  0  0  0  0  0  0  0
   29.8607   34.4337   65.3184 C   0  0  0  0  0  0  0  0  0  0  0  0
   31.0436   36.1929   66.9386 O   0  0  0  0  0  0  0  0  0  0  0  0
   28.7346   36.6862   66.1999 O   0  0  0  0  0  0  0  0  0  0  0  0
   32.0608   37.1417   64.4774 C   0  0  0  0  0  0  0  0  0  0  0  0
   32.3889   36.7597   63.0302 C   0  0  0  0  0  0  0  0  0  0  0  0
   32.3348   38.3723   60.0520 N   0  0  0  0  0  0  0  0  0  0  0  0
   32.3025   39.8232   57.4890 H   0  0  0  0  0  0  0  0  0  0  0  0
   33.6257   40.1038   58.6460 H   0  0  0  0  0  0  0  0  0  0  0  0
   33.8820   39.0408   57.2415 H   0  0  0  0  0  0  0  0  0  0  0  0
   32.2537   34.9576   58.4432 H   0  0  0  0  0  0  0  0  0  0  0  0
   31.5586   35.2225   60.8103 H   0  0  0  0  0  0  0  0  0  0  0  0
   29.5349   37.8011   61.5794 H   0  0  0  0  0  0  0  0  0  0  0  0
   29.9599   36.1751   62.1661 H   0  0  0  0  0  0  0  0  0  0  0  0
   29.7702   38.7270   63.8327 H   0  0  0  0  0  0  0  0  0  0  0  0
   28.6810   37.3168   63.9080 H   0  0  0  0  0  0  0  0  0  0  0  0
   30.8392   34.0737   65.0003 H   0  0  0  0  0  0  0  0  0  0  0  0
   29.4712   33.7832   66.1016 H   0  0  0  0  0  0  0  0  0  0  0  0
   29.1778   34.4286   64.4690 H   0  0  0  0  0  0  0  0  0  0  0  0
   32.5954   36.4816   65.1605 H   0  0  0  0  0  0  0  0  0  0  0  0
   32.3569   38.1747   64.6597 H   0  0  0  0  0  0  0  0  0  0  0  0
   32.1919   35.6982   62.8805 H   0  0  0  0  0  0  0  0  0  0  0  0
   33.4399   36.9665   62.8283 H   0  0  0  0  0  0  0  0  0  0  0  0
  1  2  1  0  0  0  0
  1 18  1  0  0  0  0
  1 19  1  0  0  0  0
  1 20  1  0  0  0  0
  2 17  2  0  0  0  0
  2  3  1  0  0  0  0
  3  4  2  0  0  0  0
  4  5  1  0  0  0  0
  4 21  1  0  0  0  0
  5  6  2  0  0  0  0
  5 22  1  0  0  0  0
  6  7  1  0  0  0  0
  6 17  1  0  0  0  0
  7 16  1  0  0  0  0
  7  8  1  0  0  0  0
  8  9  1  0  0  0  0
  8 23  1  0  0  0  0
  8 24  1  0  0  0  0
  9 10  1  0  0  0  0
  9 25  1  0  0  0  0
  9 26  1  0  0  0  0
 10 11  1  0  0  0  0
 10 15  1  0  0  0  0
 11 12  1  0  0  0  0
 11 13  2  0  0  0  0
 11 14  2  0  0  0  0
 12 27  1  0  0  0  0
 12 28  1  0  0  0  0
 12 29  1  0  0  0  0
 15 16  1  0  0  0  0
 15 30  1  0  0  0  0
 15 31  1  0  0  0  0
 16 32  1  0  0  0  0
 16 33  1  0  0  0  0
M  END
$$$$
