ZINC000000038434      none
 OpenBabel11202420153D

 40 41  0  0  0  0  0  0  0  0999 V2000
   34.1284   37.9782   55.1592 C   0  0  0  0  0  0  0  0  0  0  0  0
   33.5353   36.8503   55.9638 C   0  0  0  0  0  0  0  0  0  0  0  0
   33.2680   35.6360   55.3585 C   0  0  0  0  0  0  0  0  0  0  0  0
   32.7236   34.5996   56.0937 C   0  0  0  0  0  0  0  0  0  0  0  0
   32.4512   34.7727   57.4372 C   0  0  0  0  0  0  0  0  0  0  0  0
   32.7136   35.9914   58.0453 C   0  0  0  0  0  0  0  0  0  0  0  0
   32.4414   36.1660   59.3654 O   0  0  0  0  0  0  0  0  0  0  0  0
   32.0939   37.4864   59.7871 C   0  0  0  0  0  0  0  0  0  0  0  0
   31.8284   37.4865   61.2705 C   0  0  0  0  0  0  0  0  0  0  0  0
   31.0370   38.2736   61.7449 O   0  0  0  0  0  0  0  0  0  0  0  0
   32.4703   36.6117   62.0699 N   0  0  0  0  0  0  0  0  0  0  0  0
   32.2261   36.6118   63.4350 C   0  0  0  0  0  0  0  0  0  0  0  0
   33.4063   36.8976   64.6307 S   0  0  0  0  0  0  0  0  0  0  0  0
   32.2452   36.7083   65.9325 C   0  0  0  0  0  0  0  0  0  0  0  0
   32.5752   36.8297   67.3979 C   0  0  0  0  0  0  0  0  0  0  0  0
   31.0386   36.4436   65.4522 C   0  0  0  0  0  0  0  0  0  0  0  0
   29.8278   36.2274   66.3231 C   0  0  0  0  0  0  0  0  0  0  0  0
   31.0009   36.3879   64.0075 C   0  0  0  0  0  0  0  0  0  0  0  0
   29.7827   36.1177   63.2375 C   0  0  0  0  0  0  0  0  0  0  0  0
   28.9947   37.1373   62.8428 N   0  0  0  0  0  0  0  0  0  0  0  0
   29.4832   34.9724   62.9547 O   0  0  0  0  0  0  0  0  0  0  0  0
   33.2597   37.0303   57.3052 C   0  0  0  0  0  0  0  0  0  0  0  0
   35.2161   37.9231   55.2032 H   0  0  0  0  0  0  0  0  0  0  0  0
   33.8021   37.8957   54.1224 H   0  0  0  0  0  0  0  0  0  0  0  0
   33.7959   38.9315   55.5700 H   0  0  0  0  0  0  0  0  0  0  0  0
   33.4846   35.4973   54.3095 H   0  0  0  0  0  0  0  0  0  0  0  0
   32.5153   33.6523   55.6186 H   0  0  0  0  0  0  0  0  0  0  0  0
   32.0303   33.9612   58.0122 H   0  0  0  0  0  0  0  0  0  0  0  0
   32.9160   38.1669   59.5651 H   0  0  0  0  0  0  0  0  0  0  0  0
   31.1989   37.8132   59.2577 H   0  0  0  0  0  0  0  0  0  0  0  0
   33.1033   35.9822   61.6906 H   0  0  0  0  0  0  0  0  0  0  0  0
   33.6361   37.0513   67.5143 H   0  0  0  0  0  0  0  0  0  0  0  0
   31.9857   37.6342   67.8377 H   0  0  0  0  0  0  0  0  0  0  0  0
   32.3426   35.8915   67.9017 H   0  0  0  0  0  0  0  0  0  0  0  0
   29.3294   37.1812   66.4960 H   0  0  0  0  0  0  0  0  0  0  0  0
   29.1401   35.5431   65.8259 H   0  0  0  0  0  0  0  0  0  0  0  0
   30.1378   35.8012   67.2772 H   0  0  0  0  0  0  0  0  0  0  0  0
   29.2335   38.0501   63.0682 H   0  0  0  0  0  0  0  0  0  0  0  0
   28.1888   36.9584   62.3334 H   0  0  0  0  0  0  0  0  0  0  0  0
   33.4685   37.9787   57.7774 H   0  0  0  0  0  0  0  0  0  0  0  0
  1  2  1  0  0  0  0
  1 23  1  0  0  0  0
  1 24  1  0  0  0  0
  1 25  1  0  0  0  0
  2 22  2  0  0  0  0
  2  3  1  0  0  0  0
  3  4  2  0  0  0  0
  3 26  1  0  0  0  0
  4  5  1  0  0  0  0
  4 27  1  0  0  0  0
  5  6  2  0  0  0  0
  5 28  1  0  0  0  0
  6  7  1  0  0  0  0
  6 22  1  0  0  0  0
  7  8  1  0  0  0  0
  8  9  1  0  0  0  0
  8 29  1  0  0  0  0
  8 30  1  0  0  0  0
  9 10  2  0  0  0  0
  9 11  1  0  0  0  0
 11 12  1  0  0  0  0
 11 31  1  0  0  0  0
 12 18  2  0  0  0  0
 12 13  1  0  0  0  0
 13 14  1  0  0  0  0
 14 15  1  0  0  0  0
 14 16  2  0  0  0  0
 15 32  1  0  0  0  0
 15 33  1  0  0  0  0
 15 34  1  0  0  0  0
 16 17  1  0  0  0  0
 16 18  1  0  0  0  0
 17 35  1  0  0  0  0
 17 36  1  0  0  0  0
 17 37  1  0  0  0  0
 18 19  1  0  0  0  0
 19 20  1  0  0  0  0
 19 21  2  0  0  0  0
 20 38  1  0  0  0  0
 20 39  1  0  0  0  0
 22 40  1  0  0  0  0
M  END
$$$$
