ZINC000000051428      none
 OpenBabel11202420153D

 27 29  0  0  0  0  0  0  0  0999 V2000
   35.6058   40.1990   51.8240 C   0  0  0  0  0  0  0  0  0  0  0  0
   35.0677   39.8478   53.1872 C   0  0  0  0  0  0  0  0  0  0  0  0
   34.8380   40.6780   54.1526 N   0  0  0  0  0  0  0  0  0  0  0  0
   34.3804   40.2160   55.2330 N   0  0  0  0  0  0  0  0  0  0  0  0
   34.1813   38.9312   55.3043 C   0  0  0  0  0  0  0  0  0  0  0  0
   33.6907   38.2373   56.4035 N   0  0  0  0  0  0  0  0  0  0  0  0
   33.3726   38.9012   57.5324 C   0  0  0  0  0  0  0  0  0  0  0  0
   33.5150   40.1082   57.5889 O   0  0  0  0  0  0  0  0  0  0  0  0
   32.8537   38.1675   58.6946 C   0  0  0  0  0  0  0  0  0  0  0  0
   32.6657   36.8230   58.7502 C   0  0  0  0  0  0  0  0  0  0  0  0
   32.1390   36.5429   60.0853 C   0  0  0  0  0  0  0  0  0  0  0  0
   31.7367   35.3814   60.7495 C   0  0  0  0  0  0  0  0  0  0  0  0
   31.2780   35.4602   62.0339 C   0  0  0  0  0  0  0  0  0  0  0  0
   31.2089   36.6859   62.6822 C   0  0  0  0  0  0  0  0  0  0  0  0
   31.6006   37.8431   62.0448 C   0  0  0  0  0  0  0  0  0  0  0  0
   32.0661   37.7887   60.7360 C   0  0  0  0  0  0  0  0  0  0  0  0
   32.5037   38.7255   59.8724 O   0  0  0  0  0  0  0  0  0  0  0  0
   34.6399   38.2309   53.7504 S   0  0  0  0  0  0  0  0  0  0  0  0
   34.7764   40.4175   51.1513 H   0  0  0  0  0  0  0  0  0  0  0  0
   36.2505   41.0744   51.9024 H   0  0  0  0  0  0  0  0  0  0  0  0
   36.1796   39.3592   51.4324 H   0  0  0  0  0  0  0  0  0  0  0  0
   33.5773   37.2750   56.3583 H   0  0  0  0  0  0  0  0  0  0  0  0
   32.8553   36.1078   57.9637 H   0  0  0  0  0  0  0  0  0  0  0  0
   31.7889   34.4253   60.2498 H   0  0  0  0  0  0  0  0  0  0  0  0
   30.9665   34.5631   62.5482 H   0  0  0  0  0  0  0  0  0  0  0  0
   30.8443   36.7329   63.6977 H   0  0  0  0  0  0  0  0  0  0  0  0
   31.5419   38.7909   62.5594 H   0  0  0  0  0  0  0  0  0  0  0  0
  1  2  1  0  0  0  0
  1 19  1  0  0  0  0
  1 20  1  0  0  0  0
  1 21  1  0  0  0  0
  2 18  1  0  0  0  0
  2  3  2  0  0  0  0
  3  4  1  0  0  0  0
  4  5  2  0  0  0  0
  5  6  1  0  0  0  0
  5 18  1  0  0  0  0
  6  7  1  0  0  0  0
  6 22  1  0  0  0  0
  7  8  2  0  0  0  0
  7  9  1  0  0  0  0
  9 17  1  0  0  0  0
  9 10  2  0  0  0  0
 10 11  1  0  0  0  0
 10 23  1  0  0  0  0
 11 16  2  0  0  0  0
 11 12  1  0  0  0  0
 12 13  2  0  0  0  0
 12 24  1  0  0  0  0
 13 14  1  0  0  0  0
 13 25  1  0  0  0  0
 14 15  2  0  0  0  0
 14 26  1  0  0  0  0
 15 16  1  0  0  0  0
 15 27  1  0  0  0  0
 16 17  1  0  0  0  0
M  END
$$$$
