ZINC000000033736      none
 OpenBabel11202420153D

 36 37  0  0  0  0  0  0  0  0999 V2000
   35.7071   40.7098   51.8157 C   0  0  0  0  0  0  0  0  0  0  0  0
   35.1260   39.5866   52.6766 C   0  0  0  0  0  0  0  0  0  0  0  0
   34.8693   40.0902   54.0282 N   0  0  0  0  0  0  0  0  0  0  0  0
   34.3409   39.2514   54.9884 C   0  0  0  0  0  0  0  0  0  0  0  0
   34.1077   39.7085   56.2159 N   0  0  0  0  0  0  0  0  0  0  0  0
   33.6040   38.9009   57.1406 C   0  0  0  0  0  0  0  0  0  0  0  0
   33.3483   39.4117   58.5150 C   0  0  0  0  0  0  0  0  0  0  0  0
   33.6285   40.6943   58.8201 N   0  0  0  0  0  0  0  0  0  0  0  0
   32.8874   38.6728   59.3613 O   0  0  0  0  0  0  0  0  0  0  0  0
   33.3229   37.6393   56.8388 N   0  0  0  0  0  0  0  0  0  0  0  0
   33.5508   37.1822   55.6107 C   0  0  0  0  0  0  0  0  0  0  0  0
   33.2581   35.8703   55.2970 N   0  0  0  0  0  0  0  0  0  0  0  0
   33.3021   35.0206   56.4939 C   0  0  0  0  0  0  0  0  0  0  0  0
   32.8327   33.6087   56.1363 C   0  0  0  0  0  0  0  0  0  0  0  0
   33.7421   33.0345   55.0464 C   0  0  0  0  0  0  0  0  0  0  0  0
   33.7159   33.9633   53.8293 C   0  0  0  0  0  0  0  0  0  0  0  0
   34.1598   35.3650   54.2537 C   0  0  0  0  0  0  0  0  0  0  0  0
   34.0598   37.9888   54.6858 N   0  0  0  0  0  0  0  0  0  0  0  0
   35.8981   40.3351   50.8101 H   0  0  0  0  0  0  0  0  0  0  0  0
   34.9965   41.5350   51.7671 H   0  0  0  0  0  0  0  0  0  0  0  0
   36.6406   41.0596   52.2564 H   0  0  0  0  0  0  0  0  0  0  0  0
   35.8365   38.7614   52.7253 H   0  0  0  0  0  0  0  0  0  0  0  0
   34.1924   39.2369   52.2358 H   0  0  0  0  0  0  0  0  0  0  0  0
   35.0707   41.0131   54.2483 H   0  0  0  0  0  0  0  0  0  0  0  0
   33.9965   41.2844   58.1441 H   0  0  0  0  0  0  0  0  0  0  0  0
   33.4581   41.0282   59.7148 H   0  0  0  0  0  0  0  0  0  0  0  0
   34.3235   34.9789   56.8723 H   0  0  0  0  0  0  0  0  0  0  0  0
   32.6481   35.4378   57.2596 H   0  0  0  0  0  0  0  0  0  0  0  0
   31.8066   33.6480   55.7708 H   0  0  0  0  0  0  0  0  0  0  0  0
   32.8803   32.9743   57.0213 H   0  0  0  0  0  0  0  0  0  0  0  0
   33.3852   32.0458   54.7578 H   0  0  0  0  0  0  0  0  0  0  0  0
   34.7616   32.9578   55.4242 H   0  0  0  0  0  0  0  0  0  0  0  0
   32.7037   34.0082   53.4275 H   0  0  0  0  0  0  0  0  0  0  0  0
   34.3944   33.5821   53.0661 H   0  0  0  0  0  0  0  0  0  0  0  0
   34.1285   36.0322   53.3924 H   0  0  0  0  0  0  0  0  0  0  0  0
   35.1769   35.3214   54.6427 H   0  0  0  0  0  0  0  0  0  0  0  0
  1  2  1  0  0  0  0
  1 19  1  0  0  0  0
  1 20  1  0  0  0  0
  1 21  1  0  0  0  0
  2  3  1  0  0  0  0
  2 22  1  0  0  0  0
  2 23  1  0  0  0  0
  3  4  1  0  0  0  0
  3 24  1  0  0  0  0
  4 18  2  0  0  0  0
  4  5  1  0  0  0  0
  5  6  2  0  0  0  0
  6  7  1  0  0  0  0
  6 10  1  0  0  0  0
  7  8  1  0  0  0  0
  7  9  2  0  0  0  0
  8 25  1  0  0  0  0
  8 26  1  0  0  0  0
 10 11  2  0  0  0  0
 11 12  1  0  0  0  0
 11 18  1  0  0  0  0
 12 17  1  0  0  0  0
 12 13  1  0  0  0  0
 13 14  1  0  0  0  0
 13 27  1  0  0  0  0
 13 28  1  0  0  0  0
 14 15  1  0  0  0  0
 14 29  1  0  0  0  0
 14 30  1  0  0  0  0
 15 16  1  0  0  0  0
 15 31  1  0  0  0  0
 15 32  1  0  0  0  0
 16 17  1  0  0  0  0
 16 33  1  0  0  0  0
 16 34  1  0  0  0  0
 17 35  1  0  0  0  0
 17 36  1  0  0  0  0
M  END
$$$$
