ZINC000000001622      none
 OpenBabel11202420153D

 44 46  0  0  1  0  0  0  0  0999 V2000
   30.8779   37.5473   66.9846 C   0  0  0  0  0  0  0  0  0  0  0  0
   31.3680   36.6398   65.8859 C   0  0  0  0  0  0  0  0  0  0  0  0
   31.1453   35.4488   65.9385 O   0  0  0  0  0  0  0  0  0  0  0  0
   32.0538   37.1518   64.8446 N   0  0  0  0  0  0  0  0  0  0  0  0
   32.5302   36.2696   63.7765 C   0  0  0  0  0  0  0  0  0  0  0  0
   31.4599   36.1620   62.6885 C   0  0  2  0  0  0  0  0  0  0  0  0
   30.5373   35.7533   63.1006 H   0  0  0  0  0  0  0  0  0  0  0  0
   31.9602   35.2934   61.5183 C   0  0  0  0  0  0  0  0  0  0  0  0
   31.9429   36.2108   60.3686 N   0  0  0  0  0  0  0  0  0  0  0  0
   32.3175   35.8825   59.0581 C   0  0  0  0  0  0  0  0  0  0  0  0
   32.1563   34.5837   58.5949 C   0  0  0  0  0  0  0  0  0  0  0  0
   32.5205   34.2604   57.3024 C   0  0  0  0  0  0  0  0  0  0  0  0
   33.0580   35.2314   56.4689 C   0  0  0  0  0  0  0  0  0  0  0  0
   33.4327   34.9018   55.1599 N   0  0  0  0  0  0  0  0  0  0  0  0
   32.7473   35.7609   54.1836 C   0  0  0  0  0  0  0  0  0  0  0  0
   33.2296   35.4077   52.7741 C   0  0  0  0  0  0  0  0  0  0  0  0
   32.9963   34.0180   52.5301 O   0  0  0  0  0  0  0  0  0  0  0  0
   33.6496   33.1522   53.4624 C   0  0  0  0  0  0  0  0  0  0  0  0
   33.1717   33.4825   54.8789 C   0  0  0  0  0  0  0  0  0  0  0  0
   33.2248   36.5312   56.9337 C   0  0  0  0  0  0  0  0  0  0  0  0
   33.7474   37.4772   56.1230 F   0  0  0  0  0  0  0  0  0  0  0  0
   32.8550   36.8552   58.2258 C   0  0  0  0  0  0  0  0  0  0  0  0
   31.5102   37.4110   60.7779 C   0  0  0  0  0  0  0  0  0  0  0  0
   31.3957   38.3643   60.0330 O   0  0  0  0  0  0  0  0  0  0  0  0
   31.2155   37.4641   62.0819 O   0  0  0  0  0  0  0  0  0  0  0  0
   30.2025   38.2932   66.5655 H   0  0  0  0  0  0  0  0  0  0  0  0
   30.3489   36.9581   67.7336 H   0  0  0  0  0  0  0  0  0  0  0  0
   31.7277   38.0470   67.4494 H   0  0  0  0  0  0  0  0  0  0  0  0
   32.2320   38.1043   64.8026 H   0  0  0  0  0  0  0  0  0  0  0  0
   32.7328   35.2800   64.1858 H   0  0  0  0  0  0  0  0  0  0  0  0
   33.4446   36.6794   63.3474 H   0  0  0  0  0  0  0  0  0  0  0  0
   32.9732   34.9391   61.7101 H   0  0  0  0  0  0  0  0  0  0  0  0
   31.2871   34.4527   61.3504 H   0  0  0  0  0  0  0  0  0  0  0  0
   31.7419   33.8267   59.2443 H   0  0  0  0  0  0  0  0  0  0  0  0
   32.3905   33.2508   56.9415 H   0  0  0  0  0  0  0  0  0  0  0  0
   31.6712   35.6015   54.2507 H   0  0  0  0  0  0  0  0  0  0  0  0
   32.9751   36.8057   54.3949 H   0  0  0  0  0  0  0  0  0  0  0  0
   34.2959   35.6179   52.6908 H   0  0  0  0  0  0  0  0  0  0  0  0
   32.6825   36.0025   52.0425 H   0  0  0  0  0  0  0  0  0  0  0  0
   34.7281   33.2968   53.3992 H   0  0  0  0  0  0  0  0  0  0  0  0
   33.4071   32.1155   53.2289 H   0  0  0  0  0  0  0  0  0  0  0  0
   33.7092   32.8643   55.5977 H   0  0  0  0  0  0  0  0  0  0  0  0
   32.1023   33.2868   54.9570 H   0  0  0  0  0  0  0  0  0  0  0  0
   32.9838   37.8645   58.5875 H   0  0  0  0  0  0  0  0  0  0  0  0
  1  2  1  0  0  0  0
  1 26  1  0  0  0  0
  1 27  1  0  0  0  0
  1 28  1  0  0  0  0
  2  3  2  0  0  0  0
  2  4  1  0  0  0  0
  4  5  1  0  0  0  0
  4 29  1  0  0  0  0
  5  6  1  0  0  0  0
  5 30  1  0  0  0  0
  5 31  1  0  0  0  0
  6  7  1  1  0  0  0
  6 25  1  0  0  0  0
  6  8  1  0  0  0  0
  8  9  1  0  0  0  0
  8 32  1  0  0  0  0
  8 33  1  0  0  0  0
  9 10  1  0  0  0  0
  9 23  1  0  0  0  0
 10 22  2  0  0  0  0
 10 11  1  0  0  0  0
 11 12  2  0  0  0  0
 11 34  1  0  0  0  0
 12 13  1  0  0  0  0
 12 35  1  0  0  0  0
 13 14  1  0  0  0  0
 13 20  2  0  0  0  0
 14 19  1  0  0  0  0
 14 15  1  0  0  0  0
 15 16  1  0  0  0  0
 15 36  1  0  0  0  0
 15 37  1  0  0  0  0
 16 17  1  0  0  0  0
 16 38  1  0  0  0  0
 16 39  1  0  0  0  0
 17 18  1  0  0  0  0
 18 19  1  0  0  0  0
 18 40  1  0  0  0  0
 18 41  1  0  0  0  0
 19 42  1  0  0  0  0
 19 43  1  0  0  0  0
 20 21  1  0  0  0  0
 20 22  1  0  0  0  0
 22 44  1  0  0  0  0
 23 24  2  0  0  0  0
 23 25  1  0  0  0  0
M  END
$$$$
