ZINC000000002755      none
 OpenBabel11202420153D

 19 20  0  0  0  0  0  0  0  0999 V2000
   33.5863   40.4635   58.7298 C   0  0  0  0  0  0  0  0  0  0  0  0
   33.0446   39.3517   59.5149 N   0  0  0  0  0  0  0  0  0  0  0  0
   32.8875   38.1040   58.9325 C   0  0  0  0  0  0  0  0  0  0  0  0
   32.4005   37.1009   59.6348 N   0  0  0  0  0  0  0  0  0  0  0  0
   32.2401   35.8883   59.0940 C   0  0  0  0  0  0  0  0  0  0  0  0
   31.5357   34.4879   60.1515 Br  0  0  0  0  0  0  0  0  0  0  0  0
   32.5701   35.6444   57.8095 C   0  0  0  0  0  0  0  0  0  0  0  0
   33.0813   36.6513   57.0320 N   0  0  0  0  0  0  0  0  0  0  0  0
   33.4979   36.7200   55.7388 C   0  0  0  0  0  0  0  0  0  0  0  0
   33.9085   37.9920   55.5189 C   0  0  0  0  0  0  0  0  0  0  0  0
   33.7501   38.6894   56.6443 N   0  0  0  0  0  0  0  0  0  0  0  0
   33.2495   37.8983   57.5775 C   0  0  0  0  0  0  0  0  0  0  0  0
   32.9397   40.6524   57.8729 H   0  0  0  0  0  0  0  0  0  0  0  0
   33.6358   41.3573   59.3516 H   0  0  0  0  0  0  0  0  0  0  0  0
   34.5868   40.2081   58.3804 H   0  0  0  0  0  0  0  0  0  0  0  0
   32.7958   39.4889   60.4424 H   0  0  0  0  0  0  0  0  0  0  0  0
   32.4316   34.6573   57.3935 H   0  0  0  0  0  0  0  0  0  0  0  0
   33.5044   35.9111   55.0233 H   0  0  0  0  0  0  0  0  0  0  0  0
   34.2987   38.3767   54.5882 H   0  0  0  0  0  0  0  0  0  0  0  0
  1  2  1  0  0  0  0
  1 13  1  0  0  0  0
  1 14  1  0  0  0  0
  1 15  1  0  0  0  0
  2  3  1  0  0  0  0
  2 16  1  0  0  0  0
  3 12  1  0  0  0  0
  3  4  2  0  0  0  0
  4  5  1  0  0  0  0
  5  6  1  0  0  0  0
  5  7  2  0  0  0  0
  7  8  1  0  0  0  0
  7 17  1  0  0  0  0
  8 12  1  0  0  0  0
  8  9  1  0  0  0  0
  9 10  2  0  0  0  0
  9 18  1  0  0  0  0
 10 11  1  0  0  0  0
 10 19  1  0  0  0  0
 11 12  2  0  0  0  0
M  END
$$$$
