ZINC000000029867      none
 OpenBabel11202420163D

 26 27  0  0  0  0  0  0  0  0999 V2000
   33.1906   36.2423   62.5570 O   0  0  0  0  0  0  0  0  0  0  0  0
   31.7870   36.1756   62.3458 S   0  0  0  0  0  0  0  0  0  0  0  0
   31.1474   34.9398   62.0576 O   0  0  0  0  0  0  0  0  0  0  0  0
   31.2581   37.4546   61.1733 C   0  0  0  0  0  0  0  0  0  0  0  0
   31.9609   37.2500   59.8560 C   0  0  0  0  0  0  0  0  0  0  0  0
   32.5091   38.3302   59.1900 C   0  0  0  0  0  0  0  0  0  0  0  0
   33.1579   38.1419   57.9840 C   0  0  0  0  0  0  0  0  0  0  0  0
   33.2495   36.8749   57.4389 C   0  0  0  0  0  0  0  0  0  0  0  0
   32.6968   35.7954   58.1024 C   0  0  0  0  0  0  0  0  0  0  0  0
   32.0525   35.9830   59.3109 C   0  0  0  0  0  0  0  0  0  0  0  0
   31.1335   36.6460   63.7930 N   0  0  0  0  0  0  0  0  0  0  0  0
   31.8591   37.4837   64.6498 N   0  0  0  0  0  0  0  0  0  0  0  0
   33.0672   37.2293   65.2081 C   0  0  0  0  0  0  0  0  0  0  0  0
   33.3863   38.2669   65.9329 N   0  0  0  0  0  0  0  0  0  0  0  0
   32.4492   39.1452   65.8676 N   0  0  0  0  0  0  0  0  0  0  0  0
   31.4926   38.7104   65.0935 C   0  0  0  0  0  0  0  0  0  0  0  0
   30.1804   37.3878   61.0244 H   0  0  0  0  0  0  0  0  0  0  0  0
   31.5096   38.4380   61.5704 H   0  0  0  0  0  0  0  0  0  0  0  0
   32.4336   39.3208   59.6137 H   0  0  0  0  0  0  0  0  0  0  0  0
   33.5894   38.9853   57.4654 H   0  0  0  0  0  0  0  0  0  0  0  0
   33.7526   36.7283   56.4945 H   0  0  0  0  0  0  0  0  0  0  0  0
   32.7680   34.8055   57.6763 H   0  0  0  0  0  0  0  0  0  0  0  0
   31.6203   35.1397   59.8290 H   0  0  0  0  0  0  0  0  0  0  0  0
   30.2484   36.3413   64.0473 H   0  0  0  0  0  0  0  0  0  0  0  0
   33.6579   36.3349   65.0759 H   0  0  0  0  0  0  0  0  0  0  0  0
   30.5781   39.2317   64.8516 H   0  0  0  0  0  0  0  0  0  0  0  0
  1  2  2  0  0  0  0
  2  3  2  0  0  0  0
  2  4  1  0  0  0  0
  2 11  1  0  0  0  0
  4  5  1  0  0  0  0
  4 17  1  0  0  0  0
  4 18  1  0  0  0  0
  5 10  2  0  0  0  0
  5  6  1  0  0  0  0
  6  7  2  0  0  0  0
  6 19  1  0  0  0  0
  7  8  1  0  0  0  0
  7 20  1  0  0  0  0
  8  9  2  0  0  0  0
  8 21  1  0  0  0  0
  9 10  1  0  0  0  0
  9 22  1  0  0  0  0
 10 23  1  0  0  0  0
 11 12  1  0  0  0  0
 11 24  1  0  0  0  0
 12 16  1  0  0  0  0
 12 13  1  0  0  0  0
 13 14  2  0  0  0  0
 13 25  1  0  0  0  0
 14 15  1  0  0  0  0
 15 16  2  0  0  0  0
 16 26  1  0  0  0  0
M  END
$$$$
