ZINC000000051093      none
 OpenBabel11202420153D

 42 44  0  0  1  0  0  0  0  0999 V2000
   31.1348   35.3121   65.4013 C   0  0  0  0  0  0  0  0  0  0  0  0
   30.7772   36.6845   65.9110 C   0  0  0  0  0  0  0  0  0  0  0  0
   30.6397   36.8701   67.2318 C   0  0  0  0  0  0  0  0  0  0  0  0
   30.8356   35.7810   68.1160 C   0  0  0  0  0  0  0  0  0  0  0  0
   30.1375   34.7890   68.0230 O   0  0  0  0  0  0  0  0  0  0  0  0
   31.7962   35.8437   69.0613 O   0  0  0  0  0  0  0  0  0  0  0  0
   31.9380   34.7091   69.9183 C   0  0  0  0  0  0  0  0  0  0  0  0
   33.3966   34.5853   70.3634 C   0  0  0  0  0  0  0  0  0  0  0  0
   31.0428   34.8832   71.1470 C   0  0  0  0  0  0  0  0  0  0  0  0
   30.2847   38.2198   67.7848 C   0  0  1  0  0  0  0  0  0  0  0  0
   29.2795   38.0807   68.9032 C   0  0  0  0  0  0  0  0  0  0  0  0
   28.1652   37.6094   68.8176 O   0  0  0  0  0  0  0  0  0  0  0  0
   29.8546   38.5788   70.0124 N   0  0  0  0  0  0  0  0  0  0  0  0
   31.1484   39.0442   69.7719 C   0  0  0  0  0  0  0  0  0  0  0  0
   32.0810   39.6264   70.6278 C   0  0  0  0  0  0  0  0  0  0  0  0
   33.3162   40.0110   70.1489 C   0  0  0  0  0  0  0  0  0  0  0  0
   33.6392   39.8226   68.8173 C   0  0  0  0  0  0  0  0  0  0  0  0
   32.7182   39.2457   67.9606 C   0  0  0  0  0  0  0  0  0  0  0  0
   31.4847   38.8606   68.4358 C   0  0  0  0  0  0  0  0  0  0  0  0
   29.7413   39.1040   66.6993 C   0  0  0  0  0  0  0  0  0  0  0  0
   29.0203   40.2924   67.0437 C   0  0  0  0  0  0  0  0  0  0  0  0
   28.4483   41.2352   67.3169 N   0  0  0  0  0  0  0  0  0  0  0  0
   29.9290   38.7835   65.3945 C   0  0  0  0  0  0  0  0  0  0  0  0
   29.4185   39.6082   64.4231 N   0  0  0  0  0  0  0  0  0  0  0  0
   30.6016   37.6786   65.0286 O   0  0  0  0  0  0  0  0  0  0  0  0
   31.2021   35.3346   64.3136 H   0  0  0  0  0  0  0  0  0  0  0  0
   30.3661   34.6007   65.7032 H   0  0  0  0  0  0  0  0  0  0  0  0
   32.0950   35.0083   65.8185 H   0  0  0  0  0  0  0  0  0  0  0  0
   31.6447   33.8080   69.3799 H   0  0  0  0  0  0  0  0  0  0  0  0
   33.6899   35.4865   70.9019 H   0  0  0  0  0  0  0  0  0  0  0  0
   33.5047   33.7200   71.0173 H   0  0  0  0  0  0  0  0  0  0  0  0
   34.0342   34.4614   69.4883 H   0  0  0  0  0  0  0  0  0  0  0  0
   30.0037   34.9715   70.8299 H   0  0  0  0  0  0  0  0  0  0  0  0
   31.1510   34.0178   71.8009 H   0  0  0  0  0  0  0  0  0  0  0  0
   31.3362   35.7844   71.6855 H   0  0  0  0  0  0  0  0  0  0  0  0
   29.4204   38.6112   70.8791 H   0  0  0  0  0  0  0  0  0  0  0  0
   31.8363   39.7768   71.6690 H   0  0  0  0  0  0  0  0  0  0  0  0
   34.0348   40.4619   70.8173 H   0  0  0  0  0  0  0  0  0  0  0  0
   34.6078   40.1245   68.4472 H   0  0  0  0  0  0  0  0  0  0  0  0
   32.9671   39.0971   66.9202 H   0  0  0  0  0  0  0  0  0  0  0  0
   29.5453   39.3906   63.4865 H   0  0  0  0  0  0  0  0  0  0  0  0
   28.9312   40.4087   64.6734 H   0  0  0  0  0  0  0  0  0  0  0  0
  1  2  1  0  0  0  0
  1 26  1  0  0  0  0
  1 27  1  0  0  0  0
  1 28  1  0  0  0  0
  2 25  1  0  0  0  0
  2  3  2  0  0  0  0
  3  4  1  0  0  0  0
  4  5  2  0  0  0  0
  4  6  1  0  0  0  0
  6  7  1  0  0  0  0
  7  8  1  0  0  0  0
  7  9  1  0  0  0  0
  7 29  1  0  0  0  0
  8 30  1  0  0  0  0
  8 31  1  0  0  0  0
  8 32  1  0  0  0  0
  9 33  1  0  0  0  0
  9 34  1  0  0  0  0
  9 35  1  0  0  0  0
 10  3  1  6  0  0  0
 10 19  1  0  0  0  0
 10 11  1  0  0  0  0
 10 20  1  0  0  0  0
 11 12  2  0  0  0  0
 11 13  1  0  0  0  0
 13 14  1  0  0  0  0
 13 36  1  0  0  0  0
 14 19  2  0  0  0  0
 14 15  1  0  0  0  0
 15 16  2  0  0  0  0
 15 37  1  0  0  0  0
 16 17  1  0  0  0  0
 16 38  1  0  0  0  0
 17 18  2  0  0  0  0
 17 39  1  0  0  0  0
 18 19  1  0  0  0  0
 18 40  1  0  0  0  0
 20 21  1  0  0  0  0
 20 23  2  0  0  0  0
 21 22  3  0  0  0  0
 23 24  1  0  0  0  0
 23 25  1  0  0  0  0
 24 41  1  0  0  0  0
 24 42  1  0  0  0  0
M  END
$$$$
