ZINC000000001370      none
 OpenBabel11202420153D

 32 35  0  0  0  0  0  0  0  0999 V2000
   29.7509   40.4237   66.3156 Cl  0  0  0  0  0  0  0  0  0  0  0  0
   30.2651   38.9799   65.5002 C   0  0  0  0  0  0  0  0  0  0  0  0
   30.7115   39.0479   64.1899 C   0  0  0  0  0  0  0  0  0  0  0  0
   31.1022   37.8994   63.5342 C   0  0  0  0  0  0  0  0  0  0  0  0
   31.0555   36.6673   64.1789 C   0  0  0  0  0  0  0  0  0  0  0  0
   30.6408   36.5956   65.5103 C   0  0  0  0  0  0  0  0  0  0  0  0
   30.2279   37.7703   66.1568 C   0  0  0  0  0  0  0  0  0  0  0  0
   30.6384   35.3463   66.2798 C   0  0  0  0  0  0  0  0  0  0  0  0
   31.1136   35.4447   67.6795 C   0  0  0  0  0  0  0  0  0  0  0  0
   30.2653   35.1030   68.7326 C   0  0  0  0  0  0  0  0  0  0  0  0
   30.7151   35.1922   70.0339 C   0  0  0  0  0  0  0  0  0  0  0  0
   32.0015   35.6290   70.2956 C   0  0  0  0  0  0  0  0  0  0  0  0
   32.8459   35.9743   69.2556 C   0  0  0  0  0  0  0  0  0  0  0  0
   32.4092   35.8848   67.9499 C   0  0  0  0  0  0  0  0  0  0  0  0
   30.2738   34.1743   65.8881 N   0  0  0  0  0  0  0  0  0  0  0  0
   29.7615   33.9335   64.5350 C   0  0  0  0  0  0  0  0  0  0  0  0
   30.8488   34.3053   63.5583 C   0  0  0  0  0  0  0  0  0  0  0  0
   31.4296   33.5306   62.6878 N   0  0  0  0  0  0  0  0  0  0  0  0
   32.3513   34.1868   62.0724 N   0  0  0  0  0  0  0  0  0  0  0  0
   32.3940   35.4165   62.5153 C   0  0  0  0  0  0  0  0  0  0  0  0
   31.4223   35.5302   63.4588 N   0  0  0  0  0  0  0  0  0  0  0  0
   30.7536   40.0003   63.6824 H   0  0  0  0  0  0  0  0  0  0  0  0
   31.4476   37.9568   62.5126 H   0  0  0  0  0  0  0  0  0  0  0  0
   29.8786   37.7255   67.1777 H   0  0  0  0  0  0  0  0  0  0  0  0
   29.2594   34.7662   68.5297 H   0  0  0  0  0  0  0  0  0  0  0  0
   30.0603   34.9247   70.8500 H   0  0  0  0  0  0  0  0  0  0  0  0
   32.3478   35.7010   71.3162 H   0  0  0  0  0  0  0  0  0  0  0  0
   33.8489   36.3149   69.4662 H   0  0  0  0  0  0  0  0  0  0  0  0
   33.0693   36.1546   67.1388 H   0  0  0  0  0  0  0  0  0  0  0  0
   28.8802   34.5502   64.3587 H   0  0  0  0  0  0  0  0  0  0  0  0
   29.5045   32.8807   64.4184 H   0  0  0  0  0  0  0  0  0  0  0  0
   33.0717   36.1931   62.1929 H   0  0  0  0  0  0  0  0  0  0  0  0
  1  2  1  0  0  0  0
  2  7  2  0  0  0  0
  2  3  1  0  0  0  0
  3  4  2  0  0  0  0
  3 22  1  0  0  0  0
  4  5  1  0  0  0  0
  4 23  1  0  0  0  0
  5 21  1  0  0  0  0
  5  6  2  0  0  0  0
  6  7  1  0  0  0  0
  6  8  1  0  0  0  0
  7 24  1  0  0  0  0
  8  9  1  0  0  0  0
  8 15  2  0  0  0  0
  9 14  2  0  0  0  0
  9 10  1  0  0  0  0
 10 11  2  0  0  0  0
 10 25  1  0  0  0  0
 11 12  1  0  0  0  0
 11 26  1  0  0  0  0
 12 13  2  0  0  0  0
 12 27  1  0  0  0  0
 13 14  1  0  0  0  0
 13 28  1  0  0  0  0
 14 29  1  0  0  0  0
 15 16  1  0  0  0  0
 16 17  1  0  0  0  0
 16 30  1  0  0  0  0
 16 31  1  0  0  0  0
 17 21  1  0  0  0  0
 17 18  2  0  0  0  0
 18 19  1  0  0  0  0
 19 20  2  0  0  0  0
 20 21  1  0  0  0  0
 20 32  1  0  0  0  0
M  END
$$$$
