ZINC000000054156      none
 OpenBabel11202420153D

 30 31  0  0  0  0  0  0  0  0999 V2000
   29.1560   36.8019   66.7566 C   0  0  0  0  0  0  0  0  0  0  0  0
   29.7177   37.4827   65.5873 N   0  0  0  0  0  0  0  0  0  0  0  0
   29.5420   36.9437   64.3193 C   0  0  0  0  0  0  0  0  0  0  0  0
   28.8935   35.8415   64.0340 N   0  0  0  0  0  0  0  0  0  0  0  0
   28.9499   35.6523   62.6470 N   0  0  0  0  0  0  0  0  0  0  0  0
   29.6313   36.6457   62.1303 C   0  0  0  0  0  0  0  0  0  0  0  0
   29.9894   36.8776   60.4207 S   0  0  0  0  0  0  0  0  0  0  0  0
   31.8029   36.8719   60.3792 C   0  0  0  0  0  0  0  0  0  0  0  0
   32.2724   36.5702   58.9793 C   0  0  0  0  0  0  0  0  0  0  0  0
   32.4803   37.6017   58.0828 C   0  0  0  0  0  0  0  0  0  0  0  0
   32.9163   37.3263   56.8006 C   0  0  0  0  0  0  0  0  0  0  0  0
   33.1342   36.0167   56.4100 C   0  0  0  0  0  0  0  0  0  0  0  0
   33.6756   35.6704   54.7974 Cl  0  0  0  0  0  0  0  0  0  0  0  0
   32.9210   34.9839   57.3048 C   0  0  0  0  0  0  0  0  0  0  0  0
   32.4900   35.2607   58.5900 C   0  0  0  0  0  0  0  0  0  0  0  0
   32.2215   33.9649   59.7136 Cl  0  0  0  0  0  0  0  0  0  0  0  0
   30.0101   37.4731   63.1501 N   0  0  0  0  0  0  0  0  0  0  0  0
   30.7854   38.7086   63.0138 C   0  0  0  0  0  0  0  0  0  0  0  0
   29.5784   35.7999   66.8315 H   0  0  0  0  0  0  0  0  0  0  0  0
   29.3984   37.3666   67.6569 H   0  0  0  0  0  0  0  0  0  0  0  0
   28.0732   36.7330   66.6515 H   0  0  0  0  0  0  0  0  0  0  0  0
   30.2157   38.3075   65.6990 H   0  0  0  0  0  0  0  0  0  0  0  0
   32.1764   37.8493   60.6849 H   0  0  0  0  0  0  0  0  0  0  0  0
   32.1795   36.1094   61.0610 H   0  0  0  0  0  0  0  0  0  0  0  0
   32.3061   38.6236   58.3859 H   0  0  0  0  0  0  0  0  0  0  0  0
   33.0828   38.1329   56.1020 H   0  0  0  0  0  0  0  0  0  0  0  0
   33.0913   33.9617   57.0005 H   0  0  0  0  0  0  0  0  0  0  0  0
   31.8487   38.4803   63.0866 H   0  0  0  0  0  0  0  0  0  0  0  0
   30.5770   39.1635   62.0454 H   0  0  0  0  0  0  0  0  0  0  0  0
   30.5074   39.4015   63.8080 H   0  0  0  0  0  0  0  0  0  0  0  0
  1  2  1  0  0  0  0
  1 19  1  0  0  0  0
  1 20  1  0  0  0  0
  1 21  1  0  0  0  0
  2  3  1  0  0  0  0
  2 22  1  0  0  0  0
  3 17  1  0  0  0  0
  3  4  2  0  0  0  0
  4  5  1  0  0  0  0
  5  6  2  0  0  0  0
  6  7  1  0  0  0  0
  6 17  1  0  0  0  0
  7  8  1  0  0  0  0
  8  9  1  0  0  0  0
  8 23  1  0  0  0  0
  8 24  1  0  0  0  0
  9 15  2  0  0  0  0
  9 10  1  0  0  0  0
 10 11  2  0  0  0  0
 10 25  1  0  0  0  0
 11 12  1  0  0  0  0
 11 26  1  0  0  0  0
 12 13  1  0  0  0  0
 12 14  2  0  0  0  0
 14 15  1  0  0  0  0
 14 27  1  0  0  0  0
 15 16  1  0  0  0  0
 17 18  1  0  0  0  0
 18 28  1  0  0  0  0
 18 29  1  0  0  0  0
 18 30  1  0  0  0  0
M  END
$$$$
