ZINC000000051946      none
 OpenBabel11202420153D

 49 52  0  0  0  0  0  0  0  0999 V2000
   34.8334   38.0472   52.8850 C   0  0  0  0  0  0  0  0  0  0  0  0
   33.7965   37.1505   53.0664 C   0  0  0  0  0  0  0  0  0  0  0  0
   33.1033   37.1263   54.2608 C   0  0  0  0  0  0  0  0  0  0  0  0
   33.4486   38.0043   55.2802 C   0  0  0  0  0  0  0  0  0  0  0  0
   32.7490   37.9824   56.4907 N   0  0  0  0  0  0  0  0  0  0  0  0
   32.7271   36.8319   57.2551 C   0  0  0  0  0  0  0  0  0  0  0  0
   33.3714   35.7456   56.8400 N   0  0  0  0  0  0  0  0  0  0  0  0
   33.3463   34.6371   57.5732 C   0  0  0  0  0  0  0  0  0  0  0  0
   34.0111   33.5079   57.1399 N   0  0  0  0  0  0  0  0  0  0  0  0
   34.7446   33.5311   55.8720 C   0  0  0  0  0  0  0  0  0  0  0  0
   33.7731   33.7833   54.7057 C   0  0  0  0  0  0  0  0  0  0  0  0
   33.8685   32.5537   53.7790 C   0  0  0  0  0  0  0  0  0  0  0  0
   35.2649   31.9549   54.0799 C   0  0  0  0  0  0  0  0  0  0  0  0
   35.3965   32.1571   55.6133 C   0  0  0  0  0  0  0  0  0  0  0  0
   32.6852   34.6178   58.7265 N   0  0  0  0  0  0  0  0  0  0  0  0
   32.0451   35.7055   59.1441 C   0  0  0  0  0  0  0  0  0  0  0  0
   31.3585   35.6854   60.3410 N   0  0  0  0  0  0  0  0  0  0  0  0
   30.6566   36.9572   60.5672 C   0  0  0  0  0  0  0  0  0  0  0  0
   29.8619   36.8702   61.8729 C   0  0  0  0  0  0  0  0  0  0  0  0
   30.7504   36.5440   62.9450 O   0  0  0  0  0  0  0  0  0  0  0  0
   31.4504   35.3110   62.7579 C   0  0  0  0  0  0  0  0  0  0  0  0
   32.2610   35.3822   61.4612 C   0  0  0  0  0  0  0  0  0  0  0  0
   32.0662   36.8126   58.4083 N   0  0  0  0  0  0  0  0  0  0  0  0
   34.4865   38.9080   55.0924 C   0  0  0  0  0  0  0  0  0  0  0  0
   35.1796   38.9228   53.8979 C   0  0  0  0  0  0  0  0  0  0  0  0
   35.3737   38.0641   51.9501 H   0  0  0  0  0  0  0  0  0  0  0  0
   33.5286   36.4679   52.2734 H   0  0  0  0  0  0  0  0  0  0  0  0
   32.2937   36.4257   54.4019 H   0  0  0  0  0  0  0  0  0  0  0  0
   32.2789   38.7750   56.7935 H   0  0  0  0  0  0  0  0  0  0  0  0
   33.9928   32.6991   57.6750 H   0  0  0  0  0  0  0  0  0  0  0  0
   35.5085   34.3082   55.8963 H   0  0  0  0  0  0  0  0  0  0  0  0
   34.0655   34.6828   54.1639 H   0  0  0  0  0  0  0  0  0  0  0  0
   32.7557   33.8889   55.0823 H   0  0  0  0  0  0  0  0  0  0  0  0
   33.0853   31.8341   54.0179 H   0  0  0  0  0  0  0  0  0  0  0  0
   33.8005   32.8572   52.7342 H   0  0  0  0  0  0  0  0  0  0  0  0
   35.2945   30.8959   53.8234 H   0  0  0  0  0  0  0  0  0  0  0  0
   36.0429   32.5039   53.5494 H   0  0  0  0  0  0  0  0  0  0  0  0
   36.4460   32.1715   55.9073 H   0  0  0  0  0  0  0  0  0  0  0  0
   34.8601   31.3736   56.1486 H   0  0  0  0  0  0  0  0  0  0  0  0
   31.3833   37.7667   60.6366 H   0  0  0  0  0  0  0  0  0  0  0  0
   29.9751   37.1491   59.7385 H   0  0  0  0  0  0  0  0  0  0  0  0
   29.0994   36.0963   61.7840 H   0  0  0  0  0  0  0  0  0  0  0  0
   29.3852   37.8295   62.0742 H   0  0  0  0  0  0  0  0  0  0  0  0
   30.7340   34.4918   62.6948 H   0  0  0  0  0  0  0  0  0  0  0  0
   32.1229   35.1422   63.5989 H   0  0  0  0  0  0  0  0  0  0  0  0
   32.7508   34.4245   61.2850 H   0  0  0  0  0  0  0  0  0  0  0  0
   33.0134   36.1665   61.5450 H   0  0  0  0  0  0  0  0  0  0  0  0
   34.7545   39.5950   55.8814 H   0  0  0  0  0  0  0  0  0  0  0  0
   35.9898   39.6221   53.7529 H   0  0  0  0  0  0  0  0  0  0  0  0
  1 25  2  0  0  0  0
  1  2  1  0  0  0  0
  1 26  1  0  0  0  0
  2  3  2  0  0  0  0
  2 27  1  0  0  0  0
  3  4  1  0  0  0  0
  3 28  1  0  0  0  0
  4  5  1  0  0  0  0
  4 24  2  0  0  0  0
  5  6  1  0  0  0  0
  5 29  1  0  0  0  0
  6 23  2  0  0  0  0
  6  7  1  0  0  0  0
  7  8  2  0  0  0  0
  8  9  1  0  0  0  0
  8 15  1  0  0  0  0
  9 10  1  0  0  0  0
  9 30  1  0  0  0  0
 10 14  1  0  0  0  0
 10 11  1  0  0  0  0
 10 31  1  0  0  0  0
 11 12  1  0  0  0  0
 11 32  1  0  0  0  0
 11 33  1  0  0  0  0
 12 13  1  0  0  0  0
 12 34  1  0  0  0  0
 12 35  1  0  0  0  0
 13 14  1  0  0  0  0
 13 36  1  0  0  0  0
 13 37  1  0  0  0  0
 14 38  1  0  0  0  0
 14 39  1  0  0  0  0
 15 16  2  0  0  0  0
 16 17  1  0  0  0  0
 16 23  1  0  0  0  0
 17 22  1  0  0  0  0
 17 18  1  0  0  0  0
 18 19  1  0  0  0  0
 18 40  1  0  0  0  0
 18 41  1  0  0  0  0
 19 20  1  0  0  0  0
 19 42  1  0  0  0  0
 19 43  1  0  0  0  0
 20 21  1  0  0  0  0
 21 22  1  0  0  0  0
 21 44  1  0  0  0  0
 21 45  1  0  0  0  0
 22 46  1  0  0  0  0
 22 47  1  0  0  0  0
 24 25  1  0  0  0  0
 24 48  1  0  0  0  0
 25 49  1  0  0  0  0
M  END
$$$$
