ZINC000000004579      none
 OpenBabel11202420153D

 34 35  0  0  0  0  0  0  0  0999 V2000
   31.7152   38.0275   60.3287 C   0  0  0  0  0  0  0  0  0  0  0  0
   32.0153   36.6638   59.7619 C   0  0  0  0  0  0  0  0  0  0  0  0
   32.3805   36.5311   58.4366 C   0  0  0  0  0  0  0  0  0  0  0  0
   32.6506   35.2796   57.9142 C   0  0  0  0  0  0  0  0  0  0  0  0
   32.5620   34.1577   58.7179 C   0  0  0  0  0  0  0  0  0  0  0  0
   32.2029   34.2841   60.0454 C   0  0  0  0  0  0  0  0  0  0  0  0
   32.1071   33.0611   60.9206 C   0  0  0  0  0  0  0  0  0  0  0  0
   31.9305   35.5397   60.5731 C   0  0  0  0  0  0  0  0  0  0  0  0
   31.5662   35.6711   61.9169 N   0  0  0  0  0  0  0  0  0  0  0  0
   32.3163   36.4212   62.7483 C   0  0  0  0  0  0  0  0  0  0  0  0
   33.3100   36.9837   62.3300 O   0  0  0  0  0  0  0  0  0  0  0  0
   31.9319   36.5598   64.1654 C   0  0  0  0  0  0  0  0  0  0  0  0
   30.5920   36.4325   64.5436 C   0  0  0  0  0  0  0  0  0  0  0  0
   30.2366   36.5628   65.8666 C   0  0  0  0  0  0  0  0  0  0  0  0
   31.2098   36.8212   66.8280 C   0  0  0  0  0  0  0  0  0  0  0  0
   30.8473   36.9524   68.1642 N   0  0  0  0  0  0  0  0  0  0  0  0
   32.5442   36.9542   66.4541 C   0  0  0  0  0  0  0  0  0  0  0  0
   32.9068   36.8193   65.1335 C   0  0  0  0  0  0  0  0  0  0  0  0
   32.6484   38.5241   60.5943 H   0  0  0  0  0  0  0  0  0  0  0  0
   31.1863   38.6222   59.5839 H   0  0  0  0  0  0  0  0  0  0  0  0
   31.0936   37.9225   61.2180 H   0  0  0  0  0  0  0  0  0  0  0  0
   32.4510   37.4054   57.8063 H   0  0  0  0  0  0  0  0  0  0  0  0
   32.9316   35.1781   56.8763 H   0  0  0  0  0  0  0  0  0  0  0  0
   32.7735   33.1817   58.3069 H   0  0  0  0  0  0  0  0  0  0  0  0
   31.0947   32.6597   60.8746 H   0  0  0  0  0  0  0  0  0  0  0  0
   32.8128   32.3077   60.5707 H   0  0  0  0  0  0  0  0  0  0  0  0
   32.3444   33.3311   61.9496 H   0  0  0  0  0  0  0  0  0  0  0  0
   30.7736   35.2225   62.2506 H   0  0  0  0  0  0  0  0  0  0  0  0
   29.8366   36.2325   63.7981 H   0  0  0  0  0  0  0  0  0  0  0  0
   29.2017   36.4650   66.1593 H   0  0  0  0  0  0  0  0  0  0  0  0
   29.9174   36.8639   68.4253 H   0  0  0  0  0  0  0  0  0  0  0  0
   31.5250   37.1284   68.8354 H   0  0  0  0  0  0  0  0  0  0  0  0
   33.2961   37.1590   67.2017 H   0  0  0  0  0  0  0  0  0  0  0  0
   33.9427   36.9186   64.8445 H   0  0  0  0  0  0  0  0  0  0  0  0
  1  2  1  0  0  0  0
  1 19  1  0  0  0  0
  1 20  1  0  0  0  0
  1 21  1  0  0  0  0
  2  8  2  0  0  0  0
  2  3  1  0  0  0  0
  3  4  2  0  0  0  0
  3 22  1  0  0  0  0
  4  5  1  0  0  0  0
  4 23  1  0  0  0  0
  5  6  2  0  0  0  0
  5 24  1  0  0  0  0
  6  7  1  0  0  0  0
  6  8  1  0  0  0  0
  7 25  1  0  0  0  0
  7 26  1  0  0  0  0
  7 27  1  0  0  0  0
  8  9  1  0  0  0  0
  9 10  1  0  0  0  0
  9 28  1  0  0  0  0
 10 11  2  0  0  0  0
 10 12  1  0  0  0  0
 12 18  2  0  0  0  0
 12 13  1  0  0  0  0
 13 14  2  0  0  0  0
 13 29  1  0  0  0  0
 14 15  1  0  0  0  0
 14 30  1  0  0  0  0
 15 16  1  0  0  0  0
 15 17  2  0  0  0  0
 16 31  1  0  0  0  0
 16 32  1  0  0  0  0
 17 18  1  0  0  0  0
 17 33  1  0  0  0  0
 18 34  1  0  0  0  0
M  END
$$$$
