ZINC000000003681      none
 OpenBabel11202420153D

 36 37  0  0  1  0  0  0  0  0999 V2000
   31.0897   33.0247   62.2129 C   0  0  0  0  0  0  0  0  0  0  0  0
   31.7747   34.1045   61.5750 O   0  0  0  0  0  0  0  0  0  0  0  0
   31.0192   35.1261   61.1208 C   0  0  0  0  0  0  0  0  0  0  0  0
   29.8111   35.0997   61.2633 O   0  0  0  0  0  0  0  0  0  0  0  0
   31.6317   36.2279   60.4790 C   0  0  0  0  0  0  0  0  0  0  0  0
   32.3577   36.0642   59.3522 C   0  0  0  0  0  0  0  0  0  0  0  0
   32.5189   34.6843   58.7681 C   0  0  0  0  0  0  0  0  0  0  0  0
   32.9478   37.1288   58.7330 N   0  0  0  0  0  0  0  0  0  0  0  0
   32.8599   38.3886   59.1777 C   0  0  0  0  0  0  0  0  0  0  0  0
   33.4206   39.2714   58.5582 O   0  0  0  0  0  0  0  0  0  0  0  0
   32.1744   38.7093   60.2930 N   0  0  0  0  0  0  0  0  0  0  0  0
   31.4951   37.6319   61.0322 C   0  0  2  0  0  0  0  0  0  0  0  0
   30.4330   37.8719   61.0814 H   0  0  0  0  0  0  0  0  0  0  0  0
   32.0326   37.6309   62.4401 C   0  0  0  0  0  0  0  0  0  0  0  0
   33.0411   36.7564   62.7944 C   0  0  0  0  0  0  0  0  0  0  0  0
   33.5352   36.7551   64.0860 C   0  0  0  0  0  0  0  0  0  0  0  0
   33.0217   37.6295   65.0275 C   0  0  0  0  0  0  0  0  0  0  0  0
   32.0131   38.5054   64.6805 C   0  0  0  0  0  0  0  0  0  0  0  0
   31.5180   38.5136   63.3818 C   0  0  0  0  0  0  0  0  0  0  0  0
   30.2362   39.6359   62.9323 S   0  0  0  0  0  0  0  0  0  0  0  0
   28.7266   38.6959   63.2902 C   0  0  0  0  0  0  0  0  0  0  0  0
   27.6483   39.5777   63.4212 F   0  0  0  0  0  0  0  0  0  0  0  0
   28.4741   37.8028   62.2434 F   0  0  0  0  0  0  0  0  0  0  0  0
   30.4808   33.4125   63.0296 H   0  0  0  0  0  0  0  0  0  0  0  0
   30.4486   32.5225   61.4885 H   0  0  0  0  0  0  0  0  0  0  0  0
   31.8173   32.3153   62.6073 H   0  0  0  0  0  0  0  0  0  0  0  0
   33.1300   34.7403   57.8672 H   0  0  0  0  0  0  0  0  0  0  0  0
   33.0049   34.0358   59.4971 H   0  0  0  0  0  0  0  0  0  0  0  0
   31.5386   34.2790   58.5176 H   0  0  0  0  0  0  0  0  0  0  0  0
   33.4598   36.9629   57.9260 H   0  0  0  0  0  0  0  0  0  0  0  0
   32.1269   39.6284   60.5995 H   0  0  0  0  0  0  0  0  0  0  0  0
   33.4447   36.0732   62.0619 H   0  0  0  0  0  0  0  0  0  0  0  0
   34.3241   36.0704   64.3602 H   0  0  0  0  0  0  0  0  0  0  0  0
   33.4105   37.6253   66.0351 H   0  0  0  0  0  0  0  0  0  0  0  0
   31.6129   39.1874   65.4161 H   0  0  0  0  0  0  0  0  0  0  0  0
   28.8563   38.1401   64.2187 H   0  0  0  0  0  0  0  0  0  0  0  0
  1  2  1  0  0  0  0
  1 24  1  0  0  0  0
  1 25  1  0  0  0  0
  1 26  1  0  0  0  0
  2  3  1  0  0  0  0
  3  4  2  0  0  0  0
  3  5  1  0  0  0  0
  5 12  1  0  0  0  0
  5  6  2  0  0  0  0
  6  7  1  0  0  0  0
  6  8  1  0  0  0  0
  7 27  1  0  0  0  0
  7 28  1  0  0  0  0
  7 29  1  0  0  0  0
  8  9  1  0  0  0  0
  8 30  1  0  0  0  0
  9 10  2  0  0  0  0
  9 11  1  0  0  0  0
 11 12  1  0  0  0  0
 11 31  1  0  0  0  0
 12 13  1  1  0  0  0
 12 14  1  0  0  0  0
 14 19  2  0  0  0  0
 14 15  1  0  0  0  0
 15 16  2  0  0  0  0
 15 32  1  0  0  0  0
 16 17  1  0  0  0  0
 16 33  1  0  0  0  0
 17 18  2  0  0  0  0
 17 34  1  0  0  0  0
 18 19  1  0  0  0  0
 18 35  1  0  0  0  0
 19 20  1  0  0  0  0
 20 21  1  0  0  0  0
 21 22  1  0  0  0  0
 21 23  1  0  0  0  0
 21 36  1  0  0  0  0
M  END
$$$$
