ZINC000000055723      none
 OpenBabel11202420153D

 32 34  0  0  0  0  0  0  0  0999 V2000
   31.0648   33.3099   61.8135 O   0  0  0  0  0  0  0  0  0  0  0  0
   30.8694   34.4734   62.0951 C   0  0  0  0  0  0  0  0  0  0  0  0
   31.3154   35.5619   61.1532 C   0  0  0  0  0  0  0  0  0  0  0  0
   31.9749   34.9339   59.9237 C   0  0  0  0  0  0  0  0  0  0  0  0
   32.4084   35.9921   59.0081 N   0  0  0  0  0  0  0  0  0  0  0  0
   33.0247   35.7757   57.8320 C   0  0  0  0  0  0  0  0  0  0  0  0
   33.3050   34.6889   57.3681 O   0  0  0  0  0  0  0  0  0  0  0  0
   33.3008   37.0819   57.1976 C   0  0  0  0  0  0  0  0  0  0  0  0
   33.8967   37.4742   56.0098 C   0  0  0  0  0  0  0  0  0  0  0  0
   34.0066   38.8227   55.7086 C   0  0  0  0  0  0  0  0  0  0  0  0
   33.5252   39.7778   56.5844 C   0  0  0  0  0  0  0  0  0  0  0  0
   32.9264   39.4002   57.7760 C   0  0  0  0  0  0  0  0  0  0  0  0
   32.8100   38.0558   58.0906 C   0  0  0  0  0  0  0  0  0  0  0  0
   32.2478   37.3082   59.2352 C   0  0  0  0  0  0  0  0  0  0  0  0
   31.7274   37.7999   60.2163 O   0  0  0  0  0  0  0  0  0  0  0  0
   30.2585   34.7928   63.2532 N   0  0  0  0  0  0  0  0  0  0  0  0
   29.8498   33.7827   64.1302 C   0  0  0  0  0  0  0  0  0  0  0  0
   30.0079   32.4704   63.9332 N   0  0  0  0  0  0  0  0  0  0  0  0
   29.5134   31.8077   64.9472 C   0  0  0  0  0  0  0  0  0  0  0  0
   29.0207   32.6946   65.8283 N   0  0  0  0  0  0  0  0  0  0  0  0
   28.5927   32.4950   66.6756 H   0  0  0  0  0  0  0  0  0  0  0  0
   29.2532   33.9681   65.2835 N   0  0  0  0  0  0  0  0  0  0  0  0
   30.4516   36.1493   60.8418 H   0  0  0  0  0  0  0  0  0  0  0  0
   32.0317   36.2091   61.6590 H   0  0  0  0  0  0  0  0  0  0  0  0
   32.8387   34.3464   60.2350 H   0  0  0  0  0  0  0  0  0  0  0  0
   31.2586   34.2866   59.4180 H   0  0  0  0  0  0  0  0  0  0  0  0
   34.2746   36.7324   55.3218 H   0  0  0  0  0  0  0  0  0  0  0  0
   34.4712   39.1294   54.7832 H   0  0  0  0  0  0  0  0  0  0  0  0
   33.6160   40.8254   56.3382 H   0  0  0  0  0  0  0  0  0  0  0  0
   32.5524   40.1508   58.4567 H   0  0  0  0  0  0  0  0  0  0  0  0
   30.1022   35.7233   63.4786 H   0  0  0  0  0  0  0  0  0  0  0  0
   29.5026   30.7334   65.0569 H   0  0  0  0  0  0  0  0  0  0  0  0
  1  2  2  0  0  0  0
  2  3  1  0  0  0  0
  2 16  1  0  0  0  0
  3  4  1  0  0  0  0
  3 23  1  0  0  0  0
  3 24  1  0  0  0  0
  4  5  1  0  0  0  0
  4 25  1  0  0  0  0
  4 26  1  0  0  0  0
  5 14  1  0  0  0  0
  5  6  1  0  0  0  0
  6  7  2  0  0  0  0
  6  8  1  0  0  0  0
  8 13  2  0  0  0  0
  8  9  1  0  0  0  0
  9 10  2  0  0  0  0
  9 27  1  0  0  0  0
 10 11  1  0  0  0  0
 10 28  1  0  0  0  0
 11 12  2  0  0  0  0
 11 29  1  0  0  0  0
 12 13  1  0  0  0  0
 12 30  1  0  0  0  0
 13 14  1  0  0  0  0
 14 15  2  0  0  0  0
 16 17  1  0  0  0  0
 16 31  1  0  0  0  0
 17 22  2  0  0  0  0
 17 18  1  0  0  0  0
 18 19  2  0  0  0  0
 19 20  1  0  0  0  0
 19 32  1  0  0  0  0
 20 21  1  0  0  0  0
 20 22  1  0  0  0  0
M  END
$$$$
