ZINC000000022760      none
 OpenBabel11202420153D

 25 26  0  0  0  0  0  0  0  0999 V2000
   31.9166   37.6908   59.5959 C   0  0  0  0  0  0  0  0  0  0  0  0
   32.5371   37.0735   58.3691 C   0  0  0  0  0  0  0  0  0  0  0  0
   32.6154   35.7539   58.1913 C   0  0  0  0  0  0  0  0  0  0  0  0
   33.3904   35.4112   56.6501 S   0  0  0  0  0  0  0  0  0  0  0  0
   33.5783   37.1302   56.3286 C   0  0  0  0  0  0  0  0  0  0  0  0
   34.2126   37.7190   55.0947 C   0  0  0  0  0  0  0  0  0  0  0  0
   33.6949   37.0035   53.8737 C   0  0  0  0  0  0  0  0  0  0  0  0
   34.0393   37.2645   52.5981 C   0  0  0  0  0  0  0  0  0  0  0  0
   33.3452   36.3844   51.8125 N   0  0  0  0  0  0  0  0  0  0  0  0
   33.3840   36.3220   50.8453 H   0  0  0  0  0  0  0  0  0  0  0  0
   32.5960   35.6193   52.6355 C   0  0  0  0  0  0  0  0  0  0  0  0
   32.8080   35.9974   53.8664 N   0  0  0  0  0  0  0  0  0  0  0  0
   33.0685   37.8330   57.3410 C   0  0  0  0  0  0  0  0  0  0  0  0
   33.0704   39.3399   57.3639 C   0  0  0  0  0  0  0  0  0  0  0  0
   30.8517   37.8478   59.4246 H   0  0  0  0  0  0  0  0  0  0  0  0
   32.0532   37.0236   60.4470 H   0  0  0  0  0  0  0  0  0  0  0  0
   32.3962   38.6473   59.8034 H   0  0  0  0  0  0  0  0  0  0  0  0
   32.2537   35.0095   58.8854 H   0  0  0  0  0  0  0  0  0  0  0  0
   35.2949   37.6033   55.1522 H   0  0  0  0  0  0  0  0  0  0  0  0
   33.9634   38.7780   55.0282 H   0  0  0  0  0  0  0  0  0  0  0  0
   34.7335   38.0198   52.2603 H   0  0  0  0  0  0  0  0  0  0  0  0
   31.9320   34.8257   52.3263 H   0  0  0  0  0  0  0  0  0  0  0  0
   32.1553   39.7114   56.9027 H   0  0  0  0  0  0  0  0  0  0  0  0
   33.1243   39.6876   58.3956 H   0  0  0  0  0  0  0  0  0  0  0  0
   33.9328   39.7105   56.8100 H   0  0  0  0  0  0  0  0  0  0  0  0
  1  2  1  0  0  0  0
  1 15  1  0  0  0  0
  1 16  1  0  0  0  0
  1 17  1  0  0  0  0
  2 13  1  0  0  0  0
  2  3  2  0  0  0  0
  3  4  1  0  0  0  0
  3 18  1  0  0  0  0
  4  5  1  0  0  0  0
  5  6  1  0  0  0  0
  5 13  2  0  0  0  0
  6  7  1  0  0  0  0
  6 19  1  0  0  0  0
  6 20  1  0  0  0  0
  7 12  1  0  0  0  0
  7  8  2  0  0  0  0
  8  9  1  0  0  0  0
  8 21  1  0  0  0  0
  9 10  1  0  0  0  0
  9 11  1  0  0  0  0
 11 12  2  0  0  0  0
 11 22  1  0  0  0  0
 13 14  1  0  0  0  0
 14 23  1  0  0  0  0
 14 24  1  0  0  0  0
 14 25  1  0  0  0  0
M  END
$$$$
