ZINC000000029564      none
 OpenBabel11202420163D

 39 40  0  0  1  0  0  0  0  0999 V2000
   30.6158   33.9849   68.8784 C   0  0  0  0  0  0  0  0  0  0  0  0
   30.7432   34.7457   67.5571 C   0  0  0  0  0  0  0  0  0  0  0  0
   31.8680   35.7769   67.6686 C   0  0  2  0  0  0  0  0  0  0  0  0
   32.8079   35.2701   67.8870 H   0  0  0  0  0  0  0  0  0  0  0  0
   31.5462   36.7682   68.7914 C   0  0  0  0  0  0  0  0  0  0  0  0
   32.6023   37.8757   68.8069 C   0  0  0  0  0  0  0  0  0  0  0  0
   32.5740   38.6286   67.4748 C   0  0  0  0  0  0  0  0  0  0  0  0
   32.9073   37.6584   66.3372 C   0  0  0  0  0  0  0  0  0  0  0  0
   31.9879   36.5137   66.4033 N   0  0  0  0  0  0  0  0  0  0  0  0
   31.2659   36.1492   65.3252 C   0  0  0  0  0  0  0  0  0  0  0  0
   30.5089   35.2002   65.3932 O   0  0  0  0  0  0  0  0  0  0  0  0
   31.3942   36.9020   64.0621 C   0  0  0  0  0  0  0  0  0  0  0  0
   30.5585   37.9928   63.8086 C   0  0  0  0  0  0  0  0  0  0  0  0
   30.6844   38.6952   62.6310 C   0  0  0  0  0  0  0  0  0  0  0  0
   31.6343   38.3141   61.6904 C   0  0  0  0  0  0  0  0  0  0  0  0
   31.7519   39.0060   60.5288 O   0  0  0  0  0  0  0  0  0  0  0  0
   32.7485   38.5606   59.6065 C   0  0  0  0  0  0  0  0  0  0  0  0
   32.4641   37.2267   61.9366 C   0  0  0  0  0  0  0  0  0  0  0  0
   32.3479   36.5221   63.1140 C   0  0  0  0  0  0  0  0  0  0  0  0
   29.8876   33.1816   68.7664 H   0  0  0  0  0  0  0  0  0  0  0  0
   31.5836   33.5627   69.1493 H   0  0  0  0  0  0  0  0  0  0  0  0
   30.2857   34.6683   69.6607 H   0  0  0  0  0  0  0  0  0  0  0  0
   30.9716   34.0443   66.7545 H   0  0  0  0  0  0  0  0  0  0  0  0
   29.8042   35.2544   67.3388 H   0  0  0  0  0  0  0  0  0  0  0  0
   30.5627   37.2058   68.6197 H   0  0  0  0  0  0  0  0  0  0  0  0
   31.5504   36.2474   69.7489 H   0  0  0  0  0  0  0  0  0  0  0  0
   32.3896   38.5690   69.6206 H   0  0  0  0  0  0  0  0  0  0  0  0
   33.5884   37.4349   68.9538 H   0  0  0  0  0  0  0  0  0  0  0  0
   31.5809   39.0487   67.3155 H   0  0  0  0  0  0  0  0  0  0  0  0
   33.3102   39.4321   67.4953 H   0  0  0  0  0  0  0  0  0  0  0  0
   32.7918   38.1652   65.3791 H   0  0  0  0  0  0  0  0  0  0  0  0
   33.9342   37.3089   66.4442 H   0  0  0  0  0  0  0  0  0  0  0  0
   29.8175   38.2870   64.5372 H   0  0  0  0  0  0  0  0  0  0  0  0
   30.0414   39.5408   62.4360 H   0  0  0  0  0  0  0  0  0  0  0  0
   32.5396   37.5315   59.3146 H   0  0  0  0  0  0  0  0  0  0  0  0
   32.7367   39.1985   58.7228 H   0  0  0  0  0  0  0  0  0  0  0  0
   33.7295   38.6124   60.0787 H   0  0  0  0  0  0  0  0  0  0  0  0
   33.2009   36.9337   61.2033 H   0  0  0  0  0  0  0  0  0  0  0  0
   32.9931   35.6772   63.3045 H   0  0  0  0  0  0  0  0  0  0  0  0
  1  2  1  0  0  0  0
  1 20  1  0  0  0  0
  1 21  1  0  0  0  0
  1 22  1  0  0  0  0
  2  3  1  0  0  0  0
  2 23  1  0  0  0  0
  2 24  1  0  0  0  0
  3  4  1  1  0  0  0
  3  9  1  0  0  0  0
  3  5  1  0  0  0  0
  5  6  1  0  0  0  0
  5 25  1  0  0  0  0
  5 26  1  0  0  0  0
  6  7  1  0  0  0  0
  6 27  1  0  0  0  0
  6 28  1  0  0  0  0
  7  8  1  0  0  0  0
  7 29  1  0  0  0  0
  7 30  1  0  0  0  0
  8  9  1  0  0  0  0
  8 31  1  0  0  0  0
  8 32  1  0  0  0  0
  9 10  1  0  0  0  0
 10 11  2  0  0  0  0
 10 12  1  0  0  0  0
 12 19  2  0  0  0  0
 12 13  1  0  0  0  0
 13 14  2  0  0  0  0
 13 33  1  0  0  0  0
 14 15  1  0  0  0  0
 14 34  1  0  0  0  0
 15 16  1  0  0  0  0
 15 18  2  0  0  0  0
 16 17  1  0  0  0  0
 17 35  1  0  0  0  0
 17 36  1  0  0  0  0
 17 37  1  0  0  0  0
 18 19  1  0  0  0  0
 18 38  1  0  0  0  0
 19 39  1  0  0  0  0
M  END
$$$$
