ZINC000000029258      none
 OpenBabel11202420163D

 33 34  0  0  0  0  0  0  0  0999 V2000
   29.4836   32.0326   64.8875 C   0  0  0  0  0  0  0  0  0  0  0  0
   30.1811   32.0027   63.6406 O   0  0  0  0  0  0  0  0  0  0  0  0
   30.5645   33.1979   63.1198 C   0  0  0  0  0  0  0  0  0  0  0  0
   31.2468   33.2423   61.9122 C   0  0  0  0  0  0  0  0  0  0  0  0
   31.6364   34.4583   61.3849 C   0  0  0  0  0  0  0  0  0  0  0  0
   31.3479   35.6301   62.0598 C   0  0  0  0  0  0  0  0  0  0  0  0
   31.7745   36.9553   61.4826 C   0  0  0  0  0  0  0  0  0  0  0  0
   32.4706   36.7333   60.2128 N   0  0  0  0  0  0  0  0  0  0  0  0
   31.9887   37.2747   59.0765 C   0  0  0  0  0  0  0  0  0  0  0  0
   30.9764   37.9471   59.1053 O   0  0  0  0  0  0  0  0  0  0  0  0
   32.6909   37.0510   57.7955 C   0  0  0  0  0  0  0  0  0  0  0  0
   32.8641   35.7543   57.3078 C   0  0  0  0  0  0  0  0  0  0  0  0
   33.5198   35.5524   56.1116 C   0  0  0  0  0  0  0  0  0  0  0  0
   34.0062   36.6315   55.3941 C   0  0  0  0  0  0  0  0  0  0  0  0
   33.8387   37.9188   55.8703 C   0  0  0  0  0  0  0  0  0  0  0  0
   33.1839   38.1357   57.0670 C   0  0  0  0  0  0  0  0  0  0  0  0
   32.9550   39.8968   57.7168 Br  0  0  0  0  0  0  0  0  0  0  0  0
   30.6735   35.5879   63.2661 C   0  0  0  0  0  0  0  0  0  0  0  0
   30.2764   34.3748   63.7946 C   0  0  0  0  0  0  0  0  0  0  0  0
   30.1157   32.4935   65.6466 H   0  0  0  0  0  0  0  0  0  0  0  0
   28.5670   32.6120   64.7773 H   0  0  0  0  0  0  0  0  0  0  0  0
   29.2360   31.0151   65.1899 H   0  0  0  0  0  0  0  0  0  0  0  0
   31.4731   32.3273   61.3850 H   0  0  0  0  0  0  0  0  0  0  0  0
   32.1671   34.4936   60.4450 H   0  0  0  0  0  0  0  0  0  0  0  0
   32.4439   37.4573   62.1811 H   0  0  0  0  0  0  0  0  0  0  0  0
   30.8956   37.5768   61.3113 H   0  0  0  0  0  0  0  0  0  0  0  0
   33.2785   36.1969   60.1899 H   0  0  0  0  0  0  0  0  0  0  0  0
   32.4813   34.9114   57.8641 H   0  0  0  0  0  0  0  0  0  0  0  0
   33.6545   34.5496   55.7338 H   0  0  0  0  0  0  0  0  0  0  0  0
   34.5192   36.4672   54.4580 H   0  0  0  0  0  0  0  0  0  0  0  0
   34.2203   38.7564   55.3054 H   0  0  0  0  0  0  0  0  0  0  0  0
   30.4535   36.5042   63.7936 H   0  0  0  0  0  0  0  0  0  0  0  0
   29.7461   34.3427   64.7349 H   0  0  0  0  0  0  0  0  0  0  0  0
  1  2  1  0  0  0  0
  1 20  1  0  0  0  0
  1 21  1  0  0  0  0
  1 22  1  0  0  0  0
  2  3  1  0  0  0  0
  3 19  2  0  0  0  0
  3  4  1  0  0  0  0
  4  5  2  0  0  0  0
  4 23  1  0  0  0  0
  5  6  1  0  0  0  0
  5 24  1  0  0  0  0
  6  7  1  0  0  0  0
  6 18  2  0  0  0  0
  7  8  1  0  0  0  0
  7 25  1  0  0  0  0
  7 26  1  0  0  0  0
  8  9  1  0  0  0  0
  8 27  1  0  0  0  0
  9 10  2  0  0  0  0
  9 11  1  0  0  0  0
 11 16  2  0  0  0  0
 11 12  1  0  0  0  0
 12 13  2  0  0  0  0
 12 28  1  0  0  0  0
 13 14  1  0  0  0  0
 13 29  1  0  0  0  0
 14 15  2  0  0  0  0
 14 30  1  0  0  0  0
 15 16  1  0  0  0  0
 15 31  1  0  0  0  0
 16 17  1  0  0  0  0
 18 19  1  0  0  0  0
 18 32  1  0  0  0  0
 19 33  1  0  0  0  0
M  END
$$$$
