ZINC000000052615      none
 OpenBabel11202420153D

 18 19  0  0  0  0  0  0  0  0999 V2000
   33.2542   40.7201   58.9859 N   0  0  0  0  0  0  0  0  0  0  0  0
   33.2764   39.5533   58.2297 C   0  0  0  0  0  0  0  0  0  0  0  0
   33.6563   39.6020   56.8930 C   0  0  0  0  0  0  0  0  0  0  0  0
   33.6870   38.4485   56.1323 C   0  0  0  0  0  0  0  0  0  0  0  0
   33.3263   37.2350   56.7027 C   0  0  0  0  0  0  0  0  0  0  0  0
   32.9350   37.1824   58.0577 C   0  0  0  0  0  0  0  0  0  0  0  0
   32.9117   38.3397   58.8139 C   0  0  0  0  0  0  0  0  0  0  0  0
   32.6237   35.7633   58.3331 C   0  0  0  0  0  0  0  0  0  0  0  0
   32.2495   35.3125   59.3969 O   0  0  0  0  0  0  0  0  0  0  0  0
   32.8254   35.0557   57.2069 N   0  0  0  0  0  0  0  0  0  0  0  0
   33.2394   35.8499   56.2035 C   0  0  0  0  0  0  0  0  0  0  0  0
   33.4992   35.4867   55.0736 O   0  0  0  0  0  0  0  0  0  0  0  0
   32.9856   40.6892   59.9175 H   0  0  0  0  0  0  0  0  0  0  0  0
   33.5110   41.5641   58.5830 H   0  0  0  0  0  0  0  0  0  0  0  0
   33.9327   40.5461   56.4475 H   0  0  0  0  0  0  0  0  0  0  0  0
   33.9869   38.4914   55.0957 H   0  0  0  0  0  0  0  0  0  0  0  0
   32.6133   38.3044   59.8512 H   0  0  0  0  0  0  0  0  0  0  0  0
   32.6898   34.0985   57.1287 H   0  0  0  0  0  0  0  0  0  0  0  0
  1  2  1  0  0  0  0
  1 13  1  0  0  0  0
  1 14  1  0  0  0  0
  2  7  2  0  0  0  0
  2  3  1  0  0  0  0
  3  4  2  0  0  0  0
  3 15  1  0  0  0  0
  4  5  1  0  0  0  0
  4 16  1  0  0  0  0
  5 11  1  0  0  0  0
  5  6  2  0  0  0  0
  6  7  1  0  0  0  0
  6  8  1  0  0  0  0
  7 17  1  0  0  0  0
  8  9  2  0  0  0  0
  8 10  1  0  0  0  0
 10 11  1  0  0  0  0
 10 18  1  0  0  0  0
 11 12  2  0  0  0  0
M  END
$$$$
