ZINC000000033679      none
 OpenBabel11202420153D

 32 35  0  0  0  0  0  0  0  0999 V2000
   31.4734   34.0075   60.5732 C   0  0  0  0  0  0  0  0  0  0  0  0
   31.9792   35.0374   59.6624 N   0  0  0  0  0  0  0  0  0  0  0  0
   32.3319   34.6911   58.4058 C   0  0  0  0  0  0  0  0  0  0  0  0
   32.2342   33.5395   58.0271 O   0  0  0  0  0  0  0  0  0  0  0  0
   32.8376   35.7392   57.5060 C   0  0  0  0  0  0  0  0  0  0  0  0
   33.2787   35.7646   56.2018 C   0  0  0  0  0  0  0  0  0  0  0  0
   33.6297   37.0241   55.8877 N   0  0  0  0  0  0  0  0  0  0  0  0
   34.1312   37.5962   54.7226 C   0  0  0  0  0  0  0  0  0  0  0  0
   34.3645   36.8411   53.5858 C   0  0  0  0  0  0  0  0  0  0  0  0
   34.8636   37.4481   52.4496 C   0  0  0  0  0  0  0  0  0  0  0  0
   35.1276   38.8093   52.4380 C   0  0  0  0  0  0  0  0  0  0  0  0
   34.9064   39.5752   53.5617 C   0  0  0  0  0  0  0  0  0  0  0  0
   34.4018   38.9763   54.7192 C   0  0  0  0  0  0  0  0  0  0  0  0
   34.1679   39.7033   55.8423 N   0  0  0  0  0  0  0  0  0  0  0  0
   33.7048   39.1568   56.9089 N   0  0  0  0  0  0  0  0  0  0  0  0
   33.4232   37.8488   56.9863 C   0  0  0  0  0  0  0  0  0  0  0  0
   32.9273   37.0637   58.0104 C   0  0  0  0  0  0  0  0  0  0  0  0
   32.5350   37.3051   59.3229 N   0  0  0  0  0  0  0  0  0  0  0  0
   32.6172   38.6626   59.8676 C   0  0  0  0  0  0  0  0  0  0  0  0
   32.0808   36.3031   60.0958 C   0  0  0  0  0  0  0  0  0  0  0  0
   31.7472   36.5550   61.2375 O   0  0  0  0  0  0  0  0  0  0  0  0
   32.3063   33.5650   61.1197 H   0  0  0  0  0  0  0  0  0  0  0  0
   30.7744   34.4575   61.2782 H   0  0  0  0  0  0  0  0  0  0  0  0
   30.9633   33.2338   59.9995 H   0  0  0  0  0  0  0  0  0  0  0  0
   33.3341   34.9129   55.5401 H   0  0  0  0  0  0  0  0  0  0  0  0
   34.1568   35.7813   53.5873 H   0  0  0  0  0  0  0  0  0  0  0  0
   35.0460   36.8589   51.5630 H   0  0  0  0  0  0  0  0  0  0  0  0
   35.5134   39.2723   51.5419 H   0  0  0  0  0  0  0  0  0  0  0  0
   35.1177   40.6342   53.5467 H   0  0  0  0  0  0  0  0  0  0  0  0
   32.2708   38.6609   60.9011 H   0  0  0  0  0  0  0  0  0  0  0  0
   33.6508   39.0066   59.8313 H   0  0  0  0  0  0  0  0  0  0  0  0
   31.9911   39.3301   59.2756 H   0  0  0  0  0  0  0  0  0  0  0  0
  1  2  1  0  0  0  0
  1 22  1  0  0  0  0
  1 23  1  0  0  0  0
  1 24  1  0  0  0  0
  2 20  1  0  0  0  0
  2  3  1  0  0  0  0
  3  4  2  0  0  0  0
  3  5  1  0  0  0  0
  5 17  1  0  0  0  0
  5  6  2  0  0  0  0
  6  7  1  0  0  0  0
  6 25  1  0  0  0  0
  7 16  1  0  0  0  0
  7  8  1  0  0  0  0
  8 13  2  0  0  0  0
  8  9  1  0  0  0  0
  9 10  2  0  0  0  0
  9 26  1  0  0  0  0
 10 11  1  0  0  0  0
 10 27  1  0  0  0  0
 11 12  2  0  0  0  0
 11 28  1  0  0  0  0
 12 13  1  0  0  0  0
 12 29  1  0  0  0  0
 13 14  1  0  0  0  0
 14 15  2  0  0  0  0
 15 16  1  0  0  0  0
 16 17  2  0  0  0  0
 17 18  1  0  0  0  0
 18 19  1  0  0  0  0
 18 20  1  0  0  0  0
 19 30  1  0  0  0  0
 19 31  1  0  0  0  0
 19 32  1  0  0  0  0
 20 21  2  0  0  0  0
M  END
$$$$
