ZINC000000004334      none
 OpenBabel11202420153D

 24 24  0  0  1  0  0  0  0  0999 V2000
   34.1452   31.8002   52.9665 N   0  0  0  0  0  0  0  0  0  0  0  0
   34.0699   32.9473   53.4315 N   0  0  0  0  0  0  0  0  0  0  0  0
   34.8968   33.3280   54.5794 C   0  0  2  0  0  0  0  0  0  0  0  0
   34.1697   33.0408   55.8232 N   0  0  0  0  0  0  0  0  0  0  0  0
   35.1998   34.7638   54.5100 N   0  0  0  0  0  0  0  0  0  0  0  0
   34.0288   35.5278   54.0600 C   0  0  0  0  0  0  0  0  0  0  0  0
   34.3771   36.9929   54.0011 C   0  0  0  0  0  0  0  0  0  0  0  0
   34.1849   37.7941   55.1111 C   0  0  0  0  0  0  0  0  0  0  0  0
   34.5052   39.1378   55.0574 C   0  0  0  0  0  0  0  0  0  0  0  0
   35.0182   39.6801   53.8940 C   0  0  0  0  0  0  0  0  0  0  0  0
   35.2054   38.8800   52.7824 C   0  0  0  0  0  0  0  0  0  0  0  0
   34.8892   37.5354   52.8374 C   0  0  0  0  0  0  0  0  0  0  0  0
   33.5978   31.5481   52.2064 H   0  0  0  0  0  0  0  0  0  0  0  0
   35.8263   32.7592   54.5623 H   0  0  0  0  0  0  0  0  0  0  0  0
   34.7434   33.2344   56.6304 H   0  0  0  0  0  0  0  0  0  0  0  0
   33.3035   33.5565   55.8632 H   0  0  0  0  0  0  0  0  0  0  0  0
   35.9954   34.9369   53.9140 H   0  0  0  0  0  0  0  0  0  0  0  0
   33.2063   35.3778   54.7594 H   0  0  0  0  0  0  0  0  0  0  0  0
   33.7303   35.1854   53.0691 H   0  0  0  0  0  0  0  0  0  0  0  0
   33.7847   37.3702   56.0204 H   0  0  0  0  0  0  0  0  0  0  0  0
   34.3550   39.7637   55.9246 H   0  0  0  0  0  0  0  0  0  0  0  0
   35.2685   40.7299   53.8521 H   0  0  0  0  0  0  0  0  0  0  0  0
   35.6022   39.3046   51.8720 H   0  0  0  0  0  0  0  0  0  0  0  0
   35.0398   36.9094   51.9704 H   0  0  0  0  0  0  0  0  0  0  0  0
  1  2  2  0  0  0  0
  1 13  1  0  0  0  0
  2  3  1  0  0  0  0
  3  4  1  0  0  0  0
  3  5  1  0  0  0  0
  3 14  1  6  0  0  0
  4 15  1  0  0  0  0
  4 16  1  0  0  0  0
  5  6  1  0  0  0  0
  5 17  1  0  0  0  0
  6  7  1  0  0  0  0
  6 18  1  0  0  0  0
  6 19  1  0  0  0  0
  7 12  2  0  0  0  0
  7  8  1  0  0  0  0
  8  9  2  0  0  0  0
  8 20  1  0  0  0  0
  9 10  1  0  0  0  0
  9 21  1  0  0  0  0
 10 11  2  0  0  0  0
 10 22  1  0  0  0  0
 11 12  1  0  0  0  0
 11 23  1  0  0  0  0
 12 24  1  0  0  0  0
M  END
$$$$
