ZINC000000033265      none
 OpenBabel11202420153D

 26 27  0  0  0  0  0  0  0  0999 V2000
   32.6077   33.2487   60.0493 C   0  0  0  0  0  0  0  0  0  0  0  0
   31.8340   33.2273   58.7561 C   0  0  0  0  0  0  0  0  0  0  0  0
   30.5944   32.8492   58.6165 N   0  0  0  0  0  0  0  0  0  0  0  0
   30.2369   32.9563   57.3268 C   0  0  0  0  0  0  0  0  0  0  0  0
   31.2903   33.4237   56.6339 C   0  0  0  0  0  0  0  0  0  0  0  0
   32.3117   33.6027   57.5362 N   0  0  0  0  0  0  0  0  0  0  0  0
   33.5513   34.0571   57.2651 C   0  0  0  0  0  0  0  0  0  0  0  0
   34.5183   33.3595   57.4972 O   0  0  0  0  0  0  0  0  0  0  0  0
   33.7339   35.4024   56.6860 C   0  0  0  0  0  0  0  0  0  0  0  0
   33.2837   36.5308   57.3760 C   0  0  0  0  0  0  0  0  0  0  0  0
   33.4572   37.7843   56.8289 C   0  0  0  0  0  0  0  0  0  0  0  0
   34.0709   37.9272   55.5963 C   0  0  0  0  0  0  0  0  0  0  0  0
   34.2480   39.2764   55.0138 N   0  0  0  0  0  0  0  0  0  0  0  0
   33.8541   40.2574   55.6188 O   0  0  0  0  0  0  0  0  0  0  0  0
   34.7874   39.4056   53.9295 O   0  0  0  0  0  0  0  0  0  0  0  0
   34.5242   36.8163   54.9089 C   0  0  0  0  0  0  0  0  0  0  0  0
   34.3576   35.5537   55.4441 C   0  0  0  0  0  0  0  0  0  0  0  0
   34.9206   34.1593   54.5770 Cl  0  0  0  0  0  0  0  0  0  0  0  0
   32.4788   34.2166   60.5338 H   0  0  0  0  0  0  0  0  0  0  0  0
   32.2385   32.4613   60.7066 H   0  0  0  0  0  0  0  0  0  0  0  0
   33.6651   33.0836   59.8427 H   0  0  0  0  0  0  0  0  0  0  0  0
   29.2690   32.7091   56.9162 H   0  0  0  0  0  0  0  0  0  0  0  0
   31.3268   33.6204   55.5726 H   0  0  0  0  0  0  0  0  0  0  0  0
   32.8013   36.4213   58.3361 H   0  0  0  0  0  0  0  0  0  0  0  0
   33.1091   38.6571   57.3615 H   0  0  0  0  0  0  0  0  0  0  0  0
   35.0057   36.9356   53.9496 H   0  0  0  0  0  0  0  0  0  0  0  0
  1  2  1  0  0  0  0
  1 19  1  0  0  0  0
  1 20  1  0  0  0  0
  1 21  1  0  0  0  0
  2  6  1  0  0  0  0
  2  3  2  0  0  0  0
  3  4  1  0  0  0  0
  4  5  2  0  0  0  0
  4 22  1  0  0  0  0
  5  6  1  0  0  0  0
  5 23  1  0  0  0  0
  6  7  1  0  0  0  0
  7  8  2  0  0  0  0
  7  9  1  0  0  0  0
  9 17  2  0  0  0  0
  9 10  1  0  0  0  0
 10 11  2  0  0  0  0
 10 24  1  0  0  0  0
 11 12  1  0  0  0  0
 11 25  1  0  0  0  0
 12 13  1  0  0  0  0
 12 16  2  0  0  0  0
 13 14  2  0  0  0  0
 13 15  2  0  0  0  0
 16 17  1  0  0  0  0
 16 26  1  0  0  0  0
 17 18  1  0  0  0  0
M  END
$$$$
