ZINC000000024225      none
 OpenBabel11202420153D

 43 45  0  0  0  0  0  0  0  0999 V2000
   28.5424   34.6096   64.5573 C   0  0  0  0  0  0  0  0  0  0  0  0
   29.0622   35.1525   63.2998 N   0  0  0  0  0  0  0  0  0  0  0  0
   30.2636   34.7523   62.8384 C   0  0  0  0  0  0  0  0  0  0  0  0
   30.9170   33.9390   63.4670 O   0  0  0  0  0  0  0  0  0  0  0  0
   30.7652   35.2762   61.6251 C   0  0  0  0  0  0  0  0  0  0  0  0
   31.5279   36.4068   61.6342 C   0  0  0  0  0  0  0  0  0  0  0  0
   31.8302   37.0844   62.9130 C   0  0  0  0  0  0  0  0  0  0  0  0
   30.9812   38.0823   63.3958 C   0  0  0  0  0  0  0  0  0  0  0  0
   31.2661   38.7063   64.5925 C   0  0  0  0  0  0  0  0  0  0  0  0
   32.3962   38.3532   65.3087 C   0  0  0  0  0  0  0  0  0  0  0  0
   33.2452   37.3694   64.8329 C   0  0  0  0  0  0  0  0  0  0  0  0
   32.9691   36.7333   63.6405 C   0  0  0  0  0  0  0  0  0  0  0  0
   32.0517   36.9542   60.3668 C   0  0  0  0  0  0  0  0  0  0  0  0
   32.2662   38.3450   60.2275 C   0  0  0  0  0  0  0  0  0  0  0  0
   32.7493   38.8330   59.0545 C   0  0  0  0  0  0  0  0  0  0  0  0
   33.0296   37.9509   57.9927 C   0  0  0  0  0  0  0  0  0  0  0  0
   33.5006   38.1743   56.7665 N   0  0  0  0  0  0  0  0  0  0  0  0
   33.6053   37.0293   56.1033 C   0  0  0  0  0  0  0  0  0  0  0  0
   34.0582   36.8791   54.8036 N   0  0  0  0  0  0  0  0  0  0  0  0
   33.1760   35.9995   56.9510 C   0  0  0  0  0  0  0  0  0  0  0  0
   33.1217   34.6349   56.6546 C   0  0  0  0  0  0  0  0  0  0  0  0
   32.2676   34.1450   55.5138 C   0  0  0  0  0  0  0  0  0  0  0  0
   33.7639   33.8425   57.3174 O   0  0  0  0  0  0  0  0  0  0  0  0
   32.8148   36.6104   58.1471 N   0  0  0  0  0  0  0  0  0  0  0  0
   32.3340   36.1119   59.3115 C   0  0  0  0  0  0  0  0  0  0  0  0
   27.5663   35.0473   64.7661 H   0  0  0  0  0  0  0  0  0  0  0  0
   28.4446   33.5272   64.4728 H   0  0  0  0  0  0  0  0  0  0  0  0
   29.2295   34.8502   65.3685 H   0  0  0  0  0  0  0  0  0  0  0  0
   28.5417   35.8003   62.7993 H   0  0  0  0  0  0  0  0  0  0  0  0
   30.5443   34.7814   60.6910 H   0  0  0  0  0  0  0  0  0  0  0  0
   30.1012   38.3620   62.8356 H   0  0  0  0  0  0  0  0  0  0  0  0
   30.6079   39.4752   64.9692 H   0  0  0  0  0  0  0  0  0  0  0  0
   32.6168   38.8477   66.2430 H   0  0  0  0  0  0  0  0  0  0  0  0
   34.1256   37.0987   65.3966 H   0  0  0  0  0  0  0  0  0  0  0  0
   33.6324   35.9656   63.2703 H   0  0  0  0  0  0  0  0  0  0  0  0
   32.0481   39.0141   61.0467 H   0  0  0  0  0  0  0  0  0  0  0  0
   32.9217   39.8928   58.9385 H   0  0  0  0  0  0  0  0  0  0  0  0
   34.2585   37.6614   54.2663 H   0  0  0  0  0  0  0  0  0  0  0  0
   34.1752   35.9914   54.4302 H   0  0  0  0  0  0  0  0  0  0  0  0
   31.8441   34.9986   54.9843 H   0  0  0  0  0  0  0  0  0  0  0  0
   32.8790   33.5589   54.8277 H   0  0  0  0  0  0  0  0  0  0  0  0
   31.4617   33.5234   55.9040 H   0  0  0  0  0  0  0  0  0  0  0  0
   32.1713   35.0492   59.4142 H   0  0  0  0  0  0  0  0  0  0  0  0
  1  2  1  0  0  0  0
  1 26  1  0  0  0  0
  1 27  1  0  0  0  0
  1 28  1  0  0  0  0
  2  3  1  0  0  0  0
  2 29  1  0  0  0  0
  3  4  2  0  0  0  0
  3  5  1  0  0  0  0
  5  6  2  0  0  0  0
  5 30  1  0  0  0  0
  6  7  1  0  0  0  0
  6 13  1  0  0  0  0
  7 12  2  0  0  0  0
  7  8  1  0  0  0  0
  8  9  2  0  0  0  0
  8 31  1  0  0  0  0
  9 10  1  0  0  0  0
  9 32  1  0  0  0  0
 10 11  2  0  0  0  0
 10 33  1  0  0  0  0
 11 12  1  0  0  0  0
 11 34  1  0  0  0  0
 12 35  1  0  0  0  0
 13 25  2  0  0  0  0
 13 14  1  0  0  0  0
 14 15  2  0  0  0  0
 14 36  1  0  0  0  0
 15 16  1  0  0  0  0
 15 37  1  0  0  0  0
 16 24  1  0  0  0  0
 16 17  2  0  0  0  0
 17 18  1  0  0  0  0
 18 19  1  0  0  0  0
 18 20  2  0  0  0  0
 19 38  1  0  0  0  0
 19 39  1  0  0  0  0
 20 21  1  0  0  0  0
 20 24  1  0  0  0  0
 21 22  1  0  0  0  0
 21 23  2  0  0  0  0
 22 40  1  0  0  0  0
 22 41  1  0  0  0  0
 22 42  1  0  0  0  0
 24 25  1  0  0  0  0
 25 43  1  0  0  0  0
M  END
$$$$
