ZINC000000001818      none
 OpenBabel11202420153D

 26 27  0  0  0  0  0  0  0  0999 V2000
   33.6125   39.4002   56.9985 N   0  0  0  0  0  0  0  0  0  0  0  0
   33.2042   39.4829   58.2372 C   0  0  0  0  0  0  0  0  0  0  0  0
   33.1705   40.7083   58.8727 N   0  0  0  0  0  0  0  0  0  0  0  0
   32.7807   38.2708   58.9542 C   0  0  0  0  0  0  0  0  0  0  0  0
   32.7663   37.0048   58.4447 C   0  0  0  0  0  0  0  0  0  0  0  0
   32.2909   36.1624   59.4580 C   0  0  0  0  0  0  0  0  0  0  0  0
   32.0443   36.9474   60.5460 C   0  0  0  0  0  0  0  0  0  0  0  0
   31.5321   36.4798   61.8501 C   0  0  0  0  0  0  0  0  0  0  0  0
   32.4210   36.0785   62.8498 C   0  0  0  0  0  0  0  0  0  0  0  0
   31.9361   35.6484   64.0672 C   0  0  0  0  0  0  0  0  0  0  0  0
   30.5719   35.6030   64.2952 C   0  0  0  0  0  0  0  0  0  0  0  0
   29.6855   35.9940   63.3075 C   0  0  0  0  0  0  0  0  0  0  0  0
   30.1570   36.4318   62.0871 C   0  0  0  0  0  0  0  0  0  0  0  0
   29.2072   36.8491   61.0311 N   0  0  0  0  0  0  0  0  0  0  0  0
   29.6252   37.2349   59.9541 O   0  0  0  0  0  0  0  0  0  0  0  0
   28.0079   36.8068   61.2394 O   0  0  0  0  0  0  0  0  0  0  0  0
   32.3407   38.2201   60.2280 O   0  0  0  0  0  0  0  0  0  0  0  0
   33.8918   40.1997   56.5256 H   0  0  0  0  0  0  0  0  0  0  0  0
   32.8675   40.7696   59.7920 H   0  0  0  0  0  0  0  0  0  0  0  0
   33.4498   41.5077   58.3997 H   0  0  0  0  0  0  0  0  0  0  0  0
   33.0608   36.7094   57.4485 H   0  0  0  0  0  0  0  0  0  0  0  0
   32.1492   35.0939   59.3914 H   0  0  0  0  0  0  0  0  0  0  0  0
   33.4857   36.1090   62.6715 H   0  0  0  0  0  0  0  0  0  0  0  0
   32.6224   35.3416   64.8426 H   0  0  0  0  0  0  0  0  0  0  0  0
   30.1973   35.2618   65.2490 H   0  0  0  0  0  0  0  0  0  0  0  0
   28.6221   35.9568   63.4923 H   0  0  0  0  0  0  0  0  0  0  0  0
  1  2  2  0  0  0  0
  1 18  1  0  0  0  0
  2  3  1  0  0  0  0
  2  4  1  0  0  0  0
  3 19  1  0  0  0  0
  3 20  1  0  0  0  0
  4 17  1  0  0  0  0
  4  5  2  0  0  0  0
  5  6  1  0  0  0  0
  5 21  1  0  0  0  0
  6  7  2  0  0  0  0
  6 22  1  0  0  0  0
  7  8  1  0  0  0  0
  7 17  1  0  0  0  0
  8 13  2  0  0  0  0
  8  9  1  0  0  0  0
  9 10  2  0  0  0  0
  9 23  1  0  0  0  0
 10 11  1  0  0  0  0
 10 24  1  0  0  0  0
 11 12  2  0  0  0  0
 11 25  1  0  0  0  0
 12 13  1  0  0  0  0
 12 26  1  0  0  0  0
 13 14  1  0  0  0  0
 14 15  2  0  0  0  0
 14 16  2  0  0  0  0
M  END
$$$$
