ZINC000000029107      none
 OpenBabel11202420163D

 18 19  0  0  0  0  0  0  0  0999 V2000
   32.8799   34.5993   57.3051 C   0  0  0  0  0  0  0  0  0  0  0  0
   33.2343   35.9647   56.7749 C   0  0  0  0  0  0  0  0  0  0  0  0
   33.6908   36.0844   55.4561 C   0  0  0  0  0  0  0  0  0  0  0  0
   34.0206   37.2841   54.9170 C   0  0  0  0  0  0  0  0  0  0  0  0
   33.9153   38.4477   55.7037 C   0  0  0  0  0  0  0  0  0  0  0  0
   34.1242   39.7357   55.5853 N   0  0  0  0  0  0  0  0  0  0  0  0
   33.8496   40.2808   56.6355 O   0  0  0  0  0  0  0  0  0  0  0  0
   33.4590   39.5585   57.5305 N   0  0  0  0  0  0  0  0  0  0  0  0
   33.4368   38.3202   57.1029 C   0  0  0  0  0  0  0  0  0  0  0  0
   33.1072   37.0406   57.5904 C   0  0  0  0  0  0  0  0  0  0  0  0
   32.6269   36.8717   58.9804 N   0  0  0  0  0  0  0  0  0  0  0  0
   32.3438   35.7624   59.3964 O   0  0  0  0  0  0  0  0  0  0  0  0
   32.5147   37.8419   59.7081 O   0  0  0  0  0  0  0  0  0  0  0  0
   31.8259   34.3976   57.1137 H   0  0  0  0  0  0  0  0  0  0  0  0
   33.0671   34.5665   58.3784 H   0  0  0  0  0  0  0  0  0  0  0  0
   33.4903   33.8463   56.8066 H   0  0  0  0  0  0  0  0  0  0  0  0
   33.7784   35.1953   54.8492 H   0  0  0  0  0  0  0  0  0  0  0  0
   34.3661   37.3462   53.8958 H   0  0  0  0  0  0  0  0  0  0  0  0
  1  2  1  0  0  0  0
  1 14  1  0  0  0  0
  1 15  1  0  0  0  0
  1 16  1  0  0  0  0
  2 10  2  0  0  0  0
  2  3  1  0  0  0  0
  3  4  2  0  0  0  0
  3 17  1  0  0  0  0
  4  5  1  0  0  0  0
  4 18  1  0  0  0  0
  5  9  1  0  0  0  0
  5  6  2  0  0  0  0
  6  7  1  0  0  0  0
  7  8  1  0  0  0  0
  8  9  2  0  0  0  0
  9 10  1  0  0  0  0
 10 11  1  0  0  0  0
 11 12  2  0  0  0  0
 11 13  2  0  0  0  0
M  END
$$$$
