ZINC000000035968      none
 OpenBabel11202420153D

 48 49  0  0  1  0  0  0  0  0999 V2000
   33.6068   38.3672   56.3576 C   0  0  0  0  0  0  0  0  0  0  0  0
   33.2862   38.8236   57.6732 O   0  0  0  0  0  0  0  0  0  0  0  0
   32.7398   37.9166   58.5250 C   0  0  0  0  0  0  0  0  0  0  0  0
   32.4038   38.2919   59.8176 C   0  0  0  0  0  0  0  0  0  0  0  0
   31.8480   37.3681   60.6815 C   0  0  0  0  0  0  0  0  0  0  0  0
   31.6266   36.0704   60.2586 C   0  0  0  0  0  0  0  0  0  0  0  0
   31.0201   35.0648   61.2030 C   0  0  1  0  0  0  0  0  0  0  0  0
   29.9343   35.0873   61.1095 H   0  0  0  0  0  0  0  0  0  0  0  0
   31.5330   33.6656   60.8565 C   0  0  0  0  0  0  0  0  0  0  0  0
   31.3986   35.3968   62.5788 N   0  0  0  0  0  0  0  0  0  0  0  0
   30.5731   35.0872   63.5983 C   0  0  0  0  0  0  0  0  0  0  0  0
   29.5146   34.5326   63.3762 O   0  0  0  0  0  0  0  0  0  0  0  0
   30.9551   35.4222   64.9867 C   0  0  0  0  0  0  0  0  0  0  0  0
   31.8122   36.4946   65.2385 C   0  0  0  0  0  0  0  0  0  0  0  0
   32.1693   36.7983   66.5360 C   0  0  0  0  0  0  0  0  0  0  0  0
   31.6713   36.0491   67.5871 C   0  0  0  0  0  0  0  0  0  0  0  0
   32.0610   36.3902   69.0024 C   0  0  0  0  0  0  0  0  0  0  0  0
   33.0056   37.5937   68.9951 C   0  0  0  0  0  0  0  0  0  0  0  0
   30.8063   36.7315   69.8087 C   0  0  0  0  0  0  0  0  0  0  0  0
   32.7668   35.1918   69.6400 C   0  0  0  0  0  0  0  0  0  0  0  0
   30.8211   34.9849   67.3445 C   0  0  0  0  0  0  0  0  0  0  0  0
   30.4605   34.6671   66.0513 C   0  0  0  0  0  0  0  0  0  0  0  0
   31.9657   35.6924   58.9727 C   0  0  0  0  0  0  0  0  0  0  0  0
   32.5166   36.6140   58.1032 C   0  0  0  0  0  0  0  0  0  0  0  0
   32.7013   38.0119   55.8657 H   0  0  0  0  0  0  0  0  0  0  0  0
   34.0345   39.1881   55.7823 H   0  0  0  0  0  0  0  0  0  0  0  0
   34.3288   37.5531   56.4213 H   0  0  0  0  0  0  0  0  0  0  0  0
   32.5770   39.3053   60.1485 H   0  0  0  0  0  0  0  0  0  0  0  0
   31.5860   37.6598   61.6878 H   0  0  0  0  0  0  0  0  0  0  0  0
   31.2514   33.4187   59.8328 H   0  0  0  0  0  0  0  0  0  0  0  0
   32.6187   33.6432   60.9500 H   0  0  0  0  0  0  0  0  0  0  0  0
   31.0943   32.9383   61.5396 H   0  0  0  0  0  0  0  0  0  0  0  0
   32.2433   35.8393   62.7561 H   0  0  0  0  0  0  0  0  0  0  0  0
   32.1987   37.0824   64.4191 H   0  0  0  0  0  0  0  0  0  0  0  0
   32.8360   37.6251   66.7319 H   0  0  0  0  0  0  0  0  0  0  0  0
   32.5029   38.4476   68.5408 H   0  0  0  0  0  0  0  0  0  0  0  0
   33.2875   37.8406   70.0187 H   0  0  0  0  0  0  0  0  0  0  0  0
   33.8996   37.3506   68.4207 H   0  0  0  0  0  0  0  0  0  0  0  0
   30.1333   35.8741   69.8139 H   0  0  0  0  0  0  0  0  0  0  0  0
   31.0882   36.9783   70.8322 H   0  0  0  0  0  0  0  0  0  0  0  0
   30.3035   37.5852   69.3544 H   0  0  0  0  0  0  0  0  0  0  0  0
   33.6606   34.9487   69.0656 H   0  0  0  0  0  0  0  0  0  0  0  0
   33.0486   35.4385   70.6635 H   0  0  0  0  0  0  0  0  0  0  0  0
   32.0939   34.3344   69.6452 H   0  0  0  0  0  0  0  0  0  0  0  0
   30.4394   34.4011   68.1692 H   0  0  0  0  0  0  0  0  0  0  0  0
   29.7971   33.8360   65.8631 H   0  0  0  0  0  0  0  0  0  0  0  0
   31.7962   34.6770   58.6463 H   0  0  0  0  0  0  0  0  0  0  0  0
   32.7773   36.3194   57.0974 H   0  0  0  0  0  0  0  0  0  0  0  0
  1  2  1  0  0  0  0
  1 25  1  0  0  0  0
  1 26  1  0  0  0  0
  1 27  1  0  0  0  0
  2  3  1  0  0  0  0
  3 24  2  0  0  0  0
  3  4  1  0  0  0  0
  4  5  2  0  0  0  0
  4 28  1  0  0  0  0
  5  6  1  0  0  0  0
  5 29  1  0  0  0  0
  6  7  1  0  0  0  0
  6 23  2  0  0  0  0
  7  8  1  6  0  0  0
  7  9  1  0  0  0  0
  7 10  1  0  0  0  0
  9 30  1  0  0  0  0
  9 31  1  0  0  0  0
  9 32  1  0  0  0  0
 10 11  1  0  0  0  0
 10 33  1  0  0  0  0
 11 12  2  0  0  0  0
 11 13  1  0  0  0  0
 13 22  2  0  0  0  0
 13 14  1  0  0  0  0
 14 15  2  0  0  0  0
 14 34  1  0  0  0  0
 15 16  1  0  0  0  0
 15 35  1  0  0  0  0
 16 17  1  0  0  0  0
 16 21  2  0  0  0  0
 17 18  1  0  0  0  0
 17 19  1  0  0  0  0
 17 20  1  0  0  0  0
 18 36  1  0  0  0  0
 18 37  1  0  0  0  0
 18 38  1  0  0  0  0
 19 39  1  0  0  0  0
 19 40  1  0  0  0  0
 19 41  1  0  0  0  0
 20 42  1  0  0  0  0
 20 43  1  0  0  0  0
 20 44  1  0  0  0  0
 21 22  1  0  0  0  0
 21 45  1  0  0  0  0
 22 46  1  0  0  0  0
 23 24  1  0  0  0  0
 23 47  1  0  0  0  0
 24 48  1  0  0  0  0
M  END
$$$$
