ZINC000000008960      none
 OpenBabel11202420153D

 39 41  0  0  0  0  0  0  0  0999 V2000
   31.6837   38.8974   65.5072 C   0  0  0  0  0  0  0  0  0  0  0  0
   30.6454   37.8764   65.3144 N   0  0  0  0  0  0  0  0  0  0  0  0
   29.7307   38.2543   64.2287 C   0  0  0  0  0  0  0  0  0  0  0  0
   31.2434   36.5581   65.0640 C   0  0  0  0  0  0  0  0  0  0  0  0
   31.6723   36.4667   63.6222 C   0  0  0  0  0  0  0  0  0  0  0  0
   32.4893   37.2476   63.1819 O   0  0  0  0  0  0  0  0  0  0  0  0
   31.1479   35.5174   62.8221 N   0  0  0  0  0  0  0  0  0  0  0  0
   31.5466   35.4324   61.4820 C   0  0  0  0  0  0  0  0  0  0  0  0
   31.5474   34.2007   60.8334 C   0  0  0  0  0  0  0  0  0  0  0  0
   31.9428   34.1039   59.5175 C   0  0  0  0  0  0  0  0  0  0  0  0
   32.3354   35.2417   58.8185 C   0  0  0  0  0  0  0  0  0  0  0  0
   32.7275   35.1370   57.4928 N   0  0  0  0  0  0  0  0  0  0  0  0
   32.7174   34.2646   57.0690 H   0  0  0  0  0  0  0  0  0  0  0  0
   33.1214   36.2034   56.7742 C   0  0  0  0  0  0  0  0  0  0  0  0
   33.4568   36.0596   55.6133 O   0  0  0  0  0  0  0  0  0  0  0  0
   33.1499   37.5418   57.3823 C   0  0  0  0  0  0  0  0  0  0  0  0
   33.5542   38.6624   56.6579 C   0  0  0  0  0  0  0  0  0  0  0  0
   33.5668   39.8994   57.2659 C   0  0  0  0  0  0  0  0  0  0  0  0
   33.1811   40.0400   58.5910 C   0  0  0  0  0  0  0  0  0  0  0  0
   32.7773   38.9434   59.3244 C   0  0  0  0  0  0  0  0  0  0  0  0
   32.7579   37.6868   58.7287 C   0  0  0  0  0  0  0  0  0  0  0  0
   32.3348   36.4839   59.4705 C   0  0  0  0  0  0  0  0  0  0  0  0
   31.9390   36.5733   60.8037 C   0  0  0  0  0  0  0  0  0  0  0  0
   32.3034   38.9590   64.6127 H   0  0  0  0  0  0  0  0  0  0  0  0
   31.2136   39.8635   65.6907 H   0  0  0  0  0  0  0  0  0  0  0  0
   32.3046   38.6274   66.3615 H   0  0  0  0  0  0  0  0  0  0  0  0
   28.9318   37.5166   64.1536 H   0  0  0  0  0  0  0  0  0  0  0  0
   29.3020   39.2340   64.4394 H   0  0  0  0  0  0  0  0  0  0  0  0
   30.2797   38.2924   63.2878 H   0  0  0  0  0  0  0  0  0  0  0  0
   30.5096   35.7803   65.2749 H   0  0  0  0  0  0  0  0  0  0  0  0
   32.1109   36.4240   65.7103 H   0  0  0  0  0  0  0  0  0  0  0  0
   30.4945   34.8930   63.1742 H   0  0  0  0  0  0  0  0  0  0  0  0
   31.2399   33.3137   61.3674 H   0  0  0  0  0  0  0  0  0  0  0  0
   31.9442   33.1425   59.0252 H   0  0  0  0  0  0  0  0  0  0  0  0
   33.8564   38.5616   55.6260 H   0  0  0  0  0  0  0  0  0  0  0  0
   33.8797   40.7678   56.7052 H   0  0  0  0  0  0  0  0  0  0  0  0
   33.1967   41.0163   59.0524 H   0  0  0  0  0  0  0  0  0  0  0  0
   32.4778   39.0601   60.3554 H   0  0  0  0  0  0  0  0  0  0  0  0
   31.9381   37.5296   61.3056 H   0  0  0  0  0  0  0  0  0  0  0  0
  1  2  1  0  0  0  0
  1 24  1  0  0  0  0
  1 25  1  0  0  0  0
  1 26  1  0  0  0  0
  2  3  1  0  0  0  0
  2  4  1  0  0  0  0
  3 27  1  0  0  0  0
  3 28  1  0  0  0  0
  3 29  1  0  0  0  0
  4  5  1  0  0  0  0
  4 30  1  0  0  0  0
  4 31  1  0  0  0  0
  5  6  2  0  0  0  0
  5  7  1  0  0  0  0
  7  8  1  0  0  0  0
  7 32  1  0  0  0  0
  8 23  2  0  0  0  0
  8  9  1  0  0  0  0
  9 10  2  0  0  0  0
  9 33  1  0  0  0  0
 10 11  1  0  0  0  0
 10 34  1  0  0  0  0
 11 22  2  0  0  0  0
 11 12  1  0  0  0  0
 12 13  1  0  0  0  0
 12 14  1  0  0  0  0
 14 15  2  0  0  0  0
 14 16  1  0  0  0  0
 16 21  2  0  0  0  0
 16 17  1  0  0  0  0
 17 18  2  0  0  0  0
 17 35  1  0  0  0  0
 18 19  1  0  0  0  0
 18 36  1  0  0  0  0
 19 20  2  0  0  0  0
 19 37  1  0  0  0  0
 20 21  1  0  0  0  0
 20 38  1  0  0  0  0
 21 22  1  0  0  0  0
 22 23  1  0  0  0  0
 23 39  1  0  0  0  0
M  END
$$$$
