ZINC000000042882      none
 OpenBabel11202420153D

 41 42  0  0  1  0  0  0  0  0999 V2000
   32.4801   36.8829   60.6368 O   0  0  0  0  0  0  0  0  0  0  0  0
   31.8457   35.9649   60.1621 C   0  0  0  0  0  0  0  0  0  0  0  0
   30.7308   35.3308   60.9533 C   0  0  0  0  0  0  0  0  0  0  0  0
   31.0428   35.4348   62.4476 C   0  0  1  0  0  0  0  0  0  0  0  0
   31.9786   34.9181   62.6603 H   0  0  0  0  0  0  0  0  0  0  0  0
   31.1676   36.8492   62.8245 N   0  3  0  0  0  0  0  0  0  0  0  0
   30.3013   37.3274   62.6277 H   0  0  0  0  0  0  0  0  0  0  0  0
   31.9140   37.2738   62.2945 H   0  0  0  0  0  0  0  0  0  0  0  0
   31.4673   36.9490   64.2591 C   0  0  0  0  0  0  0  0  0  0  0  0
   32.9573   36.6876   64.4883 C   0  0  0  0  0  0  0  0  0  0  0  0
   33.2694   36.7917   65.9825 C   0  0  0  0  0  0  0  0  0  0  0  0
   32.9150   38.1941   66.4811 C   0  0  0  0  0  0  0  0  0  0  0  0
   31.4250   38.4554   66.2519 C   0  0  0  0  0  0  0  0  0  0  0  0
   31.1129   38.3513   64.7577 C   0  0  0  0  0  0  0  0  0  0  0  0
   29.9278   34.8007   63.2389 C   0  0  0  0  0  0  0  0  0  0  0  0
   30.1622   33.8563   63.9734 O   0  0  0  0  0  0  0  0  0  0  0  0
   28.7915   35.2323   63.1443 O   0  0  0  0  0  1  0  0  0  0  0  0
   32.1644   35.4703   58.8140 C   0  0  0  0  0  0  0  0  0  0  0  0
   31.9509   34.1263   58.4898 C   0  0  0  0  0  0  0  0  0  0  0  0
   32.2481   33.6708   57.2235 C   0  0  0  0  0  0  0  0  0  0  0  0
   32.7659   34.5385   56.2753 C   0  0  0  0  0  0  0  0  0  0  0  0
   33.1431   33.9546   54.6846 Cl  0  0  0  0  0  0  0  0  0  0  0  0
   32.9845   35.8700   56.5908 C   0  0  0  0  0  0  0  0  0  0  0  0
   32.6879   36.3404   57.8517 C   0  0  0  0  0  0  0  0  0  0  0  0
   30.6382   34.2814   60.6737 H   0  0  0  0  0  0  0  0  0  0  0  0
   29.7950   35.8475   60.7407 H   0  0  0  0  0  0  0  0  0  0  0  0
   30.8807   36.2102   64.8051 H   0  0  0  0  0  0  0  0  0  0  0  0
   33.5439   37.4264   63.9422 H   0  0  0  0  0  0  0  0  0  0  0  0
   33.2098   35.6886   64.1330 H   0  0  0  0  0  0  0  0  0  0  0  0
   34.3309   36.6054   66.1459 H   0  0  0  0  0  0  0  0  0  0  0  0
   32.6828   36.0528   66.5285 H   0  0  0  0  0  0  0  0  0  0  0  0
   33.1373   38.2682   67.5456 H   0  0  0  0  0  0  0  0  0  0  0  0
   33.5016   38.9328   65.9351 H   0  0  0  0  0  0  0  0  0  0  0  0
   30.8383   37.7167   66.7979 H   0  0  0  0  0  0  0  0  0  0  0  0
   31.1724   39.4544   66.6071 H   0  0  0  0  0  0  0  0  0  0  0  0
   31.6996   39.0902   64.2116 H   0  0  0  0  0  0  0  0  0  0  0  0
   30.0514   38.5375   64.5944 H   0  0  0  0  0  0  0  0  0  0  0  0
   31.5509   33.4481   59.2290 H   0  0  0  0  0  0  0  0  0  0  0  0
   32.0810   32.6342   56.9708 H   0  0  0  0  0  0  0  0  0  0  0  0
   33.3886   36.5405   55.8469 H   0  0  0  0  0  0  0  0  0  0  0  0
   32.8594   37.3782   58.0965 H   0  0  0  0  0  0  0  0  0  0  0  0
  1  2  2  0  0  0  0
  2  3  1  0  0  0  0
  2 18  1  0  0  0  0
  3  4  1  0  0  0  0
  3 25  1  0  0  0  0
  3 26  1  0  0  0  0
  4  5  1  1  0  0  0
  4  6  1  0  0  0  0
  4 15  1  0  0  0  0
  6  7  1  0  0  0  0
  6  8  1  0  0  0  0
  6  9  1  0  0  0  0
  9 14  1  0  0  0  0
  9 10  1  0  0  0  0
  9 27  1  0  0  0  0
 10 11  1  0  0  0  0
 10 28  1  0  0  0  0
 10 29  1  0  0  0  0
 11 12  1  0  0  0  0
 11 30  1  0  0  0  0
 11 31  1  0  0  0  0
 12 13  1  0  0  0  0
 12 32  1  0  0  0  0
 12 33  1  0  0  0  0
 13 14  1  0  0  0  0
 13 34  1  0  0  0  0
 13 35  1  0  0  0  0
 14 36  1  0  0  0  0
 14 37  1  0  0  0  0
 15 16  2  0  0  0  0
 15 17  1  0  0  0  0
 18 24  2  0  0  0  0
 18 19  1  0  0  0  0
 19 20  2  0  0  0  0
 19 38  1  0  0  0  0
 20 21  1  0  0  0  0
 20 39  1  0  0  0  0
 21 22  1  0  0  0  0
 21 23  2  0  0  0  0
 23 24  1  0  0  0  0
 23 40  1  0  0  0  0
 24 41  1  0  0  0  0
M  CHG  1   6   1
M  END
$$$$
