ZINC000000041329      none
 OpenBabel11202420153D

 30 31  0  0  0  0  0  0  0  0999 V2000
   34.6220   40.8059   59.0725 C   0  0  0  0  0  0  0  0  0  0  0  0
   33.3866   40.4579   58.4442 O   0  0  0  0  0  0  0  0  0  0  0  0
   33.2809   39.1991   57.9479 C   0  0  0  0  0  0  0  0  0  0  0  0
   33.6603   38.9315   56.6420 C   0  0  0  0  0  0  0  0  0  0  0  0
   33.5463   37.6511   56.1359 C   0  0  0  0  0  0  0  0  0  0  0  0
   33.0588   36.6245   56.9281 C   0  0  0  0  0  0  0  0  0  0  0  0
   32.6819   36.8702   58.2306 C   0  0  0  0  0  0  0  0  0  0  0  0
   32.7919   38.1616   58.7560 C   0  0  0  0  0  0  0  0  0  0  0  0
   32.3918   38.4316   60.1450 C   0  0  0  0  0  0  0  0  0  0  0  0
   31.9380   37.4646   60.8924 N   0  0  0  0  0  0  0  0  0  0  0  0
   31.6670   37.6911   62.2141 C   0  0  0  0  0  0  0  0  0  0  0  0
   30.7219   38.6504   62.5824 C   0  0  0  0  0  0  0  0  0  0  0  0
   30.4534   38.8744   63.9168 C   0  0  0  0  0  0  0  0  0  0  0  0
   31.1171   38.1512   64.8929 C   0  0  0  0  0  0  0  0  0  0  0  0
   32.0545   37.1982   64.5406 C   0  0  0  0  0  0  0  0  0  0  0  0
   32.3361   36.9613   63.2056 C   0  0  0  0  0  0  0  0  0  0  0  0
   33.2576   36.0252   62.8586 O   0  0  0  0  0  0  0  0  0  0  0  0
   34.7991   40.1417   59.9184 H   0  0  0  0  0  0  0  0  0  0  0  0
   35.4359   40.7049   58.3545 H   0  0  0  0  0  0  0  0  0  0  0  0
   34.5732   41.8366   59.4238 H   0  0  0  0  0  0  0  0  0  0  0  0
   34.0411   39.7262   56.0176 H   0  0  0  0  0  0  0  0  0  0  0  0
   33.8397   37.4491   55.1163 H   0  0  0  0  0  0  0  0  0  0  0  0
   32.9739   35.6270   56.5230 H   0  0  0  0  0  0  0  0  0  0  0  0
   32.3020   36.0669   58.8444 H   0  0  0  0  0  0  0  0  0  0  0  0
   32.4739   39.4310   60.5461 H   0  0  0  0  0  0  0  0  0  0  0  0
   30.2021   39.2168   61.8237 H   0  0  0  0  0  0  0  0  0  0  0  0
   29.7223   39.6167   64.2012 H   0  0  0  0  0  0  0  0  0  0  0  0
   30.9008   38.3321   65.9355 H   0  0  0  0  0  0  0  0  0  0  0  0
   32.5713   36.6407   65.3078 H   0  0  0  0  0  0  0  0  0  0  0  0
   33.3844   35.9328   61.9045 H   0  0  0  0  0  0  0  0  0  0  0  0
  1  2  1  0  0  0  0
  1 18  1  0  0  0  0
  1 19  1  0  0  0  0
  1 20  1  0  0  0  0
  2  3  1  0  0  0  0
  3  8  2  0  0  0  0
  3  4  1  0  0  0  0
  4  5  2  0  0  0  0
  4 21  1  0  0  0  0
  5  6  1  0  0  0  0
  5 22  1  0  0  0  0
  6  7  2  0  0  0  0
  6 23  1  0  0  0  0
  7  8  1  0  0  0  0
  7 24  1  0  0  0  0
  8  9  1  0  0  0  0
  9 10  2  0  0  0  0
  9 25  1  0  0  0  0
 10 11  1  0  0  0  0
 11 16  2  0  0  0  0
 11 12  1  0  0  0  0
 12 13  2  0  0  0  0
 12 26  1  0  0  0  0
 13 14  1  0  0  0  0
 13 27  1  0  0  0  0
 14 15  2  0  0  0  0
 14 28  1  0  0  0  0
 15 16  1  0  0  0  0
 15 29  1  0  0  0  0
 16 17  1  0  0  0  0
 17 30  1  0  0  0  0
M  END
$$$$
