ZINC000000032955      none
 OpenBabel11202420153D

 22 23  0  0  0  0  0  0  0  0999 V2000
   34.7226   38.1484   53.3287 F   0  0  0  0  0  0  0  0  0  0  0  0
   34.5968   36.8959   53.9389 C   0  0  0  0  0  0  0  0  0  0  0  0
   35.8547   36.2893   54.0221 F   0  0  0  0  0  0  0  0  0  0  0  0
   33.7405   36.0913   53.1798 F   0  0  0  0  0  0  0  0  0  0  0  0
   34.0289   37.0668   55.3243 C   0  0  0  0  0  0  0  0  0  0  0  0
   33.8164   35.9666   56.1321 C   0  0  0  0  0  0  0  0  0  0  0  0
   33.3202   36.1045   57.3464 N   0  0  0  0  0  0  0  0  0  0  0  0
   33.0071   37.2923   57.8380 C   0  0  0  0  0  0  0  0  0  0  0  0
   32.4832   37.3908   59.1304 N   0  0  0  0  0  0  0  0  0  0  0  0
   32.6465   38.4502   59.9780 C   0  0  0  0  0  0  0  0  0  0  0  0
   31.9929   38.1763   61.1248 C   0  0  0  0  0  0  0  0  0  0  0  0
   31.4124   36.8990   60.9869 C   0  0  0  0  0  0  0  0  0  0  0  0
   31.7275   36.4414   59.7586 C   0  0  0  0  0  0  0  0  0  0  0  0
   33.1939   38.4433   57.0808 C   0  0  0  0  0  0  0  0  0  0  0  0
   32.7812   39.9998   57.7295 Cl  0  0  0  0  0  0  0  0  0  0  0  0
   33.7192   38.3316   55.8039 C   0  0  0  0  0  0  0  0  0  0  0  0
   34.0600   34.9807   55.7648 H   0  0  0  0  0  0  0  0  0  0  0  0
   33.2013   39.3519   59.7650 H   0  0  0  0  0  0  0  0  0  0  0  0
   31.9294   38.8165   61.9923 H   0  0  0  0  0  0  0  0  0  0  0  0
   30.8234   36.3815   61.7296 H   0  0  0  0  0  0  0  0  0  0  0  0
   31.4339   35.4887   59.3431 H   0  0  0  0  0  0  0  0  0  0  0  0
   33.8800   39.2081   55.1939 H   0  0  0  0  0  0  0  0  0  0  0  0
  1  2  1  0  0  0  0
  2  3  1  0  0  0  0
  2  4  1  0  0  0  0
  2  5  1  0  0  0  0
  5 16  2  0  0  0  0
  5  6  1  0  0  0  0
  6  7  2  0  0  0  0
  6 17  1  0  0  0  0
  7  8  1  0  0  0  0
  8  9  1  0  0  0  0
  8 14  2  0  0  0  0
  9 13  1  0  0  0  0
  9 10  1  0  0  0  0
 10 11  2  0  0  0  0
 10 18  1  0  0  0  0
 11 12  1  0  0  0  0
 11 19  1  0  0  0  0
 12 13  2  0  0  0  0
 12 20  1  0  0  0  0
 13 21  1  0  0  0  0
 14 15  1  0  0  0  0
 14 16  1  0  0  0  0
 16 22  1  0  0  0  0
M  END
$$$$
