ZINC000000005304      none
 OpenBabel11202420153D

 32 34  0  0  0  0  0  0  0  0999 V2000
   33.5325   39.7900   67.4912 C   0  0  0  0  0  0  0  0  0  0  0  0
   32.2598   39.0645   67.4924 N   0  0  0  0  0  0  0  0  0  0  0  0
   32.1206   37.9281   66.7466 C   0  0  0  0  0  0  0  0  0  0  0  0
   30.9954   37.3099   66.7644 N   0  0  0  0  0  0  0  0  0  0  0  0
   30.7153   36.1525   66.1097 C   0  0  0  0  0  0  0  0  0  0  0  0
   29.9448   35.1966   66.7902 C   0  0  0  0  0  0  0  0  0  0  0  0
   29.6148   34.0058   66.1864 C   0  0  0  0  0  0  0  0  0  0  0  0
   30.0322   33.7415   64.8903 C   0  0  0  0  0  0  0  0  0  0  0  0
   29.6019   32.2408   64.1311 Cl  0  0  0  0  0  0  0  0  0  0  0  0
   30.7919   34.6640   64.2064 C   0  0  0  0  0  0  0  0  0  0  0  0
   31.1473   35.8800   64.8068 C   0  0  0  0  0  0  0  0  0  0  0  0
   31.9719   36.8148   64.0243 C   0  0  0  0  0  0  0  0  0  0  0  0
   31.6744   36.9602   62.5893 C   0  0  0  0  0  0  0  0  0  0  0  0
   32.5726   37.2745   61.6086 C   0  0  0  0  0  0  0  0  0  0  0  0
   31.8712   37.3058   60.3968 C   0  0  0  0  0  0  0  0  0  0  0  0
   30.5748   37.0224   60.6628 C   0  0  0  0  0  0  0  0  0  0  0  0
   30.4432   36.8097   61.9983 N   0  0  0  0  0  0  0  0  0  0  0  0
   29.6179   36.5888   62.4576 H   0  0  0  0  0  0  0  0  0  0  0  0
   32.9408   37.5175   64.5156 N   0  0  0  0  0  0  0  0  0  0  0  0
   33.2902   37.4457   65.9345 C   0  0  0  0  0  0  0  0  0  0  0  0
   34.3238   39.1361   67.8574 H   0  0  0  0  0  0  0  0  0  0  0  0
   33.7668   40.1109   66.4761 H   0  0  0  0  0  0  0  0  0  0  0  0
   33.4535   40.6631   68.1390 H   0  0  0  0  0  0  0  0  0  0  0  0
   31.5158   39.3907   68.0225 H   0  0  0  0  0  0  0  0  0  0  0  0
   29.6124   35.3961   67.7982 H   0  0  0  0  0  0  0  0  0  0  0  0
   29.0255   33.2760   66.7216 H   0  0  0  0  0  0  0  0  0  0  0  0
   31.1169   34.4491   63.1992 H   0  0  0  0  0  0  0  0  0  0  0  0
   33.6277   37.4619   61.7429 H   0  0  0  0  0  0  0  0  0  0  0  0
   32.2891   37.5223   59.4247 H   0  0  0  0  0  0  0  0  0  0  0  0
   29.7781   36.9739   59.9352 H   0  0  0  0  0  0  0  0  0  0  0  0
   33.5205   36.4146   66.2022 H   0  0  0  0  0  0  0  0  0  0  0  0
   34.1577   38.0763   66.1294 H   0  0  0  0  0  0  0  0  0  0  0  0
  1  2  1  0  0  0  0
  1 21  1  0  0  0  0
  1 22  1  0  0  0  0
  1 23  1  0  0  0  0
  2  3  1  0  0  0  0
  2 24  1  0  0  0  0
  3 20  1  0  0  0  0
  3  4  2  0  0  0  0
  4  5  1  0  0  0  0
  5 11  2  0  0  0  0
  5  6  1  0  0  0  0
  6  7  2  0  0  0  0
  6 25  1  0  0  0  0
  7  8  1  0  0  0  0
  7 26  1  0  0  0  0
  8  9  1  0  0  0  0
  8 10  2  0  0  0  0
 10 11  1  0  0  0  0
 10 27  1  0  0  0  0
 11 12  1  0  0  0  0
 12 13  1  0  0  0  0
 12 19  2  0  0  0  0
 13 17  1  0  0  0  0
 13 14  2  0  0  0  0
 14 15  1  0  0  0  0
 14 28  1  0  0  0  0
 15 16  2  0  0  0  0
 15 29  1  0  0  0  0
 16 17  1  0  0  0  0
 16 30  1  0  0  0  0
 17 18  1  0  0  0  0
 19 20  1  0  0  0  0
 20 31  1  0  0  0  0
 20 32  1  0  0  0  0
M  END
$$$$
