ZINC000000039433      none
 OpenBabel11202420153D

 18 18  0  0  0  0  0  0  0  0999 V2000
   31.3533   37.9995   59.6725 C   0  0  0  0  0  0  0  0  0  0  0  0
   32.5500   37.2781   59.3727 O   0  0  0  0  0  0  0  0  0  0  0  0
   32.9380   37.2401   58.0701 C   0  0  0  0  0  0  0  0  0  0  0  0
   33.2173   38.4205   57.3925 C   0  0  0  0  0  0  0  0  0  0  0  0
   33.1086   39.6074   58.0286 F   0  0  0  0  0  0  0  0  0  0  0  0
   33.6066   38.3789   56.0663 C   0  0  0  0  0  0  0  0  0  0  0  0
   33.7175   37.1629   55.4152 C   0  0  0  0  0  0  0  0  0  0  0  0
   34.2506   37.1084   53.6017 Br  0  0  0  0  0  0  0  0  0  0  0  0
   33.4393   35.9875   56.0886 C   0  0  0  0  0  0  0  0  0  0  0  0
   33.0501   36.0240   57.4144 C   0  0  0  0  0  0  0  0  0  0  0  0
   32.7537   34.7650   58.1339 N   0  0  0  0  0  0  0  0  0  0  0  0
   32.4113   34.7974   59.3024 O   0  0  0  0  0  0  0  0  0  0  0  0
   32.8523   33.6964   57.5578 O   0  0  0  0  0  0  0  0  0  0  0  0
   31.4717   39.0405   59.3716 H   0  0  0  0  0  0  0  0  0  0  0  0
   30.5173   37.5573   59.1308 H   0  0  0  0  0  0  0  0  0  0  0  0
   31.1586   37.9508   60.7440 H   0  0  0  0  0  0  0  0  0  0  0  0
   33.8244   39.2957   55.5385 H   0  0  0  0  0  0  0  0  0  0  0  0
   33.5264   35.0398   55.5780 H   0  0  0  0  0  0  0  0  0  0  0  0
  1  2  1  0  0  0  0
  1 14  1  0  0  0  0
  1 15  1  0  0  0  0
  1 16  1  0  0  0  0
  2  3  1  0  0  0  0
  3 10  2  0  0  0  0
  3  4  1  0  0  0  0
  4  5  1  0  0  0  0
  4  6  2  0  0  0  0
  6  7  1  0  0  0  0
  6 17  1  0  0  0  0
  7  8  1  0  0  0  0
  7  9  2  0  0  0  0
  9 10  1  0  0  0  0
  9 18  1  0  0  0  0
 10 11  1  0  0  0  0
 11 12  2  0  0  0  0
 11 13  2  0  0  0  0
M  END
$$$$
