ZINC000000022768      none
 OpenBabel11202420153D

 19 20  0  0  0  0  0  0  0  0999 V2000
   32.9401   36.6192   64.3949 Br  0  0  0  0  0  0  0  0  0  0  0  0
   32.5154   35.8886   62.7032 C   0  0  0  0  0  0  0  0  0  0  0  0
   32.6101   34.5838   62.4405 C   0  0  0  0  0  0  0  0  0  0  0  0
   32.1353   34.2817   60.7742 S   0  0  0  0  0  0  0  0  0  0  0  0
   31.8258   35.9943   60.5202 C   0  0  0  0  0  0  0  0  0  0  0  0
   31.3448   36.6082   59.2305 C   0  0  0  0  0  0  0  0  0  0  0  0
   32.1464   37.8498   58.9356 C   0  0  0  0  0  0  0  0  0  0  0  0
   32.6755   38.1855   57.7437 C   0  0  0  0  0  0  0  0  0  0  0  0
   33.3138   39.3838   57.9172 N   0  0  0  0  0  0  0  0  0  0  0  0
   33.7900   39.8861   57.2375 H   0  0  0  0  0  0  0  0  0  0  0  0
   33.1572   39.7362   59.2114 C   0  0  0  0  0  0  0  0  0  0  0  0
   32.4607   38.8124   59.8151 N   0  0  0  0  0  0  0  0  0  0  0  0
   32.0871   36.6676   61.6417 C   0  0  0  0  0  0  0  0  0  0  0  0
   32.9294   33.8287   63.1435 H   0  0  0  0  0  0  0  0  0  0  0  0
   30.2907   36.8696   59.3235 H   0  0  0  0  0  0  0  0  0  0  0  0
   31.4713   35.8925   58.4181 H   0  0  0  0  0  0  0  0  0  0  0  0
   32.6055   37.6204   56.8260 H   0  0  0  0  0  0  0  0  0  0  0  0
   33.5438   40.6340   59.6707 H   0  0  0  0  0  0  0  0  0  0  0  0
   31.9708   37.7388   61.7168 H   0  0  0  0  0  0  0  0  0  0  0  0
  1  2  1  0  0  0  0
  2 13  1  0  0  0  0
  2  3  2  0  0  0  0
  3  4  1  0  0  0  0
  3 14  1  0  0  0  0
  4  5  1  0  0  0  0
  5  6  1  0  0  0  0
  5 13  2  0  0  0  0
  6  7  1  0  0  0  0
  6 15  1  0  0  0  0
  6 16  1  0  0  0  0
  7 12  1  0  0  0  0
  7  8  2  0  0  0  0
  8  9  1  0  0  0  0
  8 17  1  0  0  0  0
  9 10  1  0  0  0  0
  9 11  1  0  0  0  0
 11 12  2  0  0  0  0
 11 18  1  0  0  0  0
 13 19  1  0  0  0  0
M  END
$$$$
