ZINC000000037305      none
 OpenBabel11202420153D

 33 37  0  0  0  0  0  0  0  0999 V2000
   30.7604   35.4675   64.1360 C   0  0  0  0  0  0  0  0  0  0  0  0
   31.5874   36.5765   64.1232 C   0  0  0  0  0  0  0  0  0  0  0  0
   32.0572   37.0767   62.9261 C   0  0  0  0  0  0  0  0  0  0  0  0
   31.6967   36.4613   61.7269 C   0  0  0  0  0  0  0  0  0  0  0  0
   32.1969   36.9923   60.4397 C   0  0  0  0  0  0  0  0  0  0  0  0
   32.4335   36.2745   59.3272 C   0  0  0  0  0  0  0  0  0  0  0  0
   32.8906   37.1310   58.3457 N   0  0  0  0  0  0  0  0  0  0  0  0
   33.2411   36.8890   57.1254 N   0  0  0  0  0  0  0  0  0  0  0  0
   33.6508   37.8556   56.3488 C   0  0  0  0  0  0  0  0  0  0  0  0
   34.1157   37.9769   54.9607 C   0  0  0  0  0  0  0  0  0  0  0  0
   34.3000   37.0764   53.9166 C   0  0  0  0  0  0  0  0  0  0  0  0
   34.7646   37.5236   52.6986 C   0  0  0  0  0  0  0  0  0  0  0  0
   35.0494   38.8692   52.5076 C   0  0  0  0  0  0  0  0  0  0  0  0
   34.8749   39.7768   53.5250 C   0  0  0  0  0  0  0  0  0  0  0  0
   34.4037   39.3494   54.7753 C   0  0  0  0  0  0  0  0  0  0  0  0
   34.1508   40.0223   55.9153 N   0  0  0  0  0  0  0  0  0  0  0  0
   33.7100   39.2346   56.8815 C   0  0  0  0  0  0  0  0  0  0  0  0
   33.3341   39.4254   58.1535 N   0  0  0  0  0  0  0  0  0  0  0  0
   32.9324   38.3876   58.8691 C   0  0  0  0  0  0  0  0  0  0  0  0
   32.5041   38.3159   60.1695 N   0  0  0  0  0  0  0  0  0  0  0  0
   32.4297   39.0585   60.7890 H   0  0  0  0  0  0  0  0  0  0  0  0
   30.8577   35.3465   61.7462 C   0  0  0  0  0  0  0  0  0  0  0  0
   30.3997   34.8525   62.9504 C   0  0  0  0  0  0  0  0  0  0  0  0
   30.3953   35.0799   65.0756 H   0  0  0  0  0  0  0  0  0  0  0  0
   31.8660   37.0518   65.0521 H   0  0  0  0  0  0  0  0  0  0  0  0
   32.7030   37.9422   62.9175 H   0  0  0  0  0  0  0  0  0  0  0  0
   32.2904   35.2094   59.2199 H   0  0  0  0  0  0  0  0  0  0  0  0
   34.0799   36.0290   54.0603 H   0  0  0  0  0  0  0  0  0  0  0  0
   34.9075   36.8240   51.8883 H   0  0  0  0  0  0  0  0  0  0  0  0
   35.4169   39.2060   51.5495 H   0  0  0  0  0  0  0  0  0  0  0  0
   35.1010   40.8202   53.3617 H   0  0  0  0  0  0  0  0  0  0  0  0
   30.5713   34.8688   60.8210 H   0  0  0  0  0  0  0  0  0  0  0  0
   29.7542   33.9868   62.9670 H   0  0  0  0  0  0  0  0  0  0  0  0
  1 23  2  0  0  0  0
  1  2  1  0  0  0  0
  1 24  1  0  0  0  0
  2  3  2  0  0  0  0
  2 25  1  0  0  0  0
  3  4  1  0  0  0  0
  3 26  1  0  0  0  0
  4  5  1  0  0  0  0
  4 22  2  0  0  0  0
  5 20  1  0  0  0  0
  5  6  2  0  0  0  0
  6  7  1  0  0  0  0
  6 27  1  0  0  0  0
  7 19  1  0  0  0  0
  7  8  1  0  0  0  0
  8  9  2  0  0  0  0
  9 17  1  0  0  0  0
  9 10  1  0  0  0  0
 10 15  2  0  0  0  0
 10 11  1  0  0  0  0
 11 12  2  0  0  0  0
 11 28  1  0  0  0  0
 12 13  1  0  0  0  0
 12 29  1  0  0  0  0
 13 14  2  0  0  0  0
 13 30  1  0  0  0  0
 14 15  1  0  0  0  0
 14 31  1  0  0  0  0
 15 16  1  0  0  0  0
 16 17  2  0  0  0  0
 17 18  1  0  0  0  0
 18 19  2  0  0  0  0
 19 20  1  0  0  0  0
 20 21  1  0  0  0  0
 22 23  1  0  0  0  0
 22 32  1  0  0  0  0
 23 33  1  0  0  0  0
M  END
$$$$
