ZINC000000039476      none
 OpenBabel11202420153D

 16 16  0  0  0  0  0  0  0  0999 V2000
   34.0333   38.2720   55.1755 C   0  0  0  0  0  0  0  0  0  0  0  0
   33.8884   39.3160   56.2847 C   0  0  0  0  0  0  0  0  0  0  0  0
   33.3196   38.6849   57.4781 N   0  0  0  0  0  0  0  0  0  0  0  0
   32.9901   37.3603   57.5273 C   0  0  0  0  0  0  0  0  0  0  0  0
   32.4902   36.9347   58.6615 C   0  0  0  0  0  0  0  0  0  0  0  0
   32.3973   38.2617   59.8126 S   0  0  0  0  0  0  0  0  0  0  0  0
   33.0768   39.3688   58.6247 C   0  0  0  0  0  0  0  0  0  0  0  0
   33.3103   40.6437   58.8164 N   0  0  0  0  0  0  0  0  0  0  0  0
   34.4564   38.7416   54.2876 H   0  0  0  0  0  0  0  0  0  0  0  0
   34.6927   37.4724   55.5131 H   0  0  0  0  0  0  0  0  0  0  0  0
   33.0536   37.8582   54.9359 H   0  0  0  0  0  0  0  0  0  0  0  0
   33.2290   40.1156   55.9471 H   0  0  0  0  0  0  0  0  0  0  0  0
   34.8679   39.7296   56.5243 H   0  0  0  0  0  0  0  0  0  0  0  0
   33.1327   36.7031   56.6822 H   0  0  0  0  0  0  0  0  0  0  0  0
   32.1847   35.9184   58.8615 H   0  0  0  0  0  0  0  0  0  0  0  0
   33.1049   41.0510   59.6725 H   0  0  0  0  0  0  0  0  0  0  0  0
  1  2  1  0  0  0  0
  1  9  1  0  0  0  0
  1 10  1  0  0  0  0
  1 11  1  0  0  0  0
  2  3  1  0  0  0  0
  2 12  1  0  0  0  0
  2 13  1  0  0  0  0
  3  7  1  0  0  0  0
  3  4  1  0  0  0  0
  4  5  2  0  0  0  0
  4 14  1  0  0  0  0
  5  6  1  0  0  0  0
  5 15  1  0  0  0  0
  6  7  1  0  0  0  0
  7  8  2  0  0  0  0
  8 16  1  0  0  0  0
M  END
$$$$
