ZINC000000053325      none
 OpenBabel11202420153D

 30 31  0  0  0  0  0  0  0  0999 V2000
   29.5399   39.4237   63.5611 O   0  0  0  0  0  0  0  0  0  0  0  0
   30.4561   38.9256   64.1803 C   0  0  0  0  0  0  0  0  0  0  0  0
   30.6325   39.2356   65.6445 C   0  0  0  0  0  0  0  0  0  0  0  0
   29.3252   39.5079   66.2470 N   0  0  0  0  0  0  0  0  0  0  0  0
   28.4993   38.6138   66.8179 C   0  0  0  0  0  0  0  0  0  0  0  0
   27.4355   39.2518   67.2339 N   0  0  0  0  0  0  0  0  0  0  0  0
   27.5454   40.5484   66.9477 C   0  0  0  0  0  0  0  0  0  0  0  0
   26.5395   41.5873   67.2641 N   0  0  0  0  0  0  0  0  0  0  0  0
   26.5906   42.1812   68.3263 O   0  0  0  0  0  0  0  0  0  0  0  0
   25.6607   41.8485   66.4621 O   0  0  0  0  0  0  0  0  0  0  0  0
   28.6884   40.7555   66.3484 N   0  0  0  0  0  0  0  0  0  0  0  0
   31.3164   38.0949   63.5590 N   0  0  0  0  0  0  0  0  0  0  0  0
   31.1449   37.7936   62.1356 C   0  0  0  0  0  0  0  0  0  0  0  0
   32.1943   36.7578   61.6588 C   0  0  0  0  0  0  0  0  0  0  0  0
   31.5463   36.1073   60.4191 C   0  0  0  0  0  0  0  0  0  0  0  0
   30.0266   36.3001   60.5640 C   0  0  0  0  0  0  0  0  0  0  0  0
   29.8030   37.0608   61.8873 C   0  0  0  0  0  0  0  0  0  0  0  0
   31.0921   38.3826   66.1437 H   0  0  0  0  0  0  0  0  0  0  0  0
   31.2732   40.1103   65.7561 H   0  0  0  0  0  0  0  0  0  0  0  0
   28.6822   37.5540   66.9164 H   0  0  0  0  0  0  0  0  0  0  0  0
   32.0491   37.6965   64.0542 H   0  0  0  0  0  0  0  0  0  0  0  0
   31.2036   38.7044   61.5397 H   0  0  0  0  0  0  0  0  0  0  0  0
   32.3719   36.0110   62.4326 H   0  0  0  0  0  0  0  0  0  0  0  0
   33.1254   37.2547   61.3860 H   0  0  0  0  0  0  0  0  0  0  0  0
   31.7864   35.0445   60.3866 H   0  0  0  0  0  0  0  0  0  0  0  0
   31.9001   36.5976   59.5123 H   0  0  0  0  0  0  0  0  0  0  0  0
   29.6430   36.8847   59.7279 H   0  0  0  0  0  0  0  0  0  0  0  0
   29.5290   35.3310   60.6010 H   0  0  0  0  0  0  0  0  0  0  0  0
   28.9900   37.7791   61.7818 H   0  0  0  0  0  0  0  0  0  0  0  0
   29.5916   36.3630   62.6976 H   0  0  0  0  0  0  0  0  0  0  0  0
  1  2  2  0  0  0  0
  2  3  1  0  0  0  0
  2 12  1  0  0  0  0
  3  4  1  0  0  0  0
  3 18  1  0  0  0  0
  3 19  1  0  0  0  0
  4 11  1  0  0  0  0
  4  5  1  0  0  0  0
  5  6  2  0  0  0  0
  5 20  1  0  0  0  0
  6  7  1  0  0  0  0
  7  8  1  0  0  0  0
  7 11  2  0  0  0  0
  8  9  2  0  0  0  0
  8 10  2  0  0  0  0
 12 13  1  0  0  0  0
 12 21  1  0  0  0  0
 13 17  1  0  0  0  0
 13 14  1  0  0  0  0
 13 22  1  0  0  0  0
 14 15  1  0  0  0  0
 14 23  1  0  0  0  0
 14 24  1  0  0  0  0
 15 16  1  0  0  0  0
 15 25  1  0  0  0  0
 15 26  1  0  0  0  0
 16 17  1  0  0  0  0
 16 27  1  0  0  0  0
 16 28  1  0  0  0  0
 17 29  1  0  0  0  0
 17 30  1  0  0  0  0
M  END
$$$$
