ZINC000000013615      none
 OpenBabel11202420153D

 14 14  0  0  0  0  0  0  0  0999 V2000
   33.2308   40.7420   58.8679 N   0  0  0  0  0  0  0  0  0  0  0  0
   33.3047   39.5971   58.0708 C   0  0  0  0  0  0  0  0  0  0  0  0
   32.9983   38.3535   58.6086 C   0  0  0  0  0  0  0  0  0  0  0  0
   33.0678   37.2243   57.8167 C   0  0  0  0  0  0  0  0  0  0  0  0
   33.4518   37.3293   56.4919 C   0  0  0  0  0  0  0  0  0  0  0  0
   33.5634   35.6124   55.2966 I   0  0  0  0  0  0  0  0  0  0  0  0
   33.7626   38.5656   55.9548 C   0  0  0  0  0  0  0  0  0  0  0  0
   33.6904   39.6992   56.7402 C   0  0  0  0  0  0  0  0  0  0  0  0
   33.4487   41.6094   58.4924 H   0  0  0  0  0  0  0  0  0  0  0  0
   32.9575   40.6700   59.7959 H   0  0  0  0  0  0  0  0  0  0  0  0
   32.7024   38.2704   59.6440 H   0  0  0  0  0  0  0  0  0  0  0  0
   32.8261   36.2575   58.2333 H   0  0  0  0  0  0  0  0  0  0  0  0
   34.0624   38.6443   54.9202 H   0  0  0  0  0  0  0  0  0  0  0  0
   33.9339   40.6641   56.3205 H   0  0  0  0  0  0  0  0  0  0  0  0
  1  2  1  0  0  0  0
  1  9  1  0  0  0  0
  1 10  1  0  0  0  0
  2  8  2  0  0  0  0
  2  3  1  0  0  0  0
  3  4  2  0  0  0  0
  3 11  1  0  0  0  0
  4  5  1  0  0  0  0
  4 12  1  0  0  0  0
  5  6  1  0  0  0  0
  5  7  2  0  0  0  0
  7  8  1  0  0  0  0
  7 13  1  0  0  0  0
  8 14  1  0  0  0  0
M  END
$$$$
