ZINC000000029325      none
 OpenBabel11202420163D

 32 33  0  0  0  0  0  0  0  0999 V2000
   35.5413   37.5035   53.3998 C   0  0  0  0  0  0  0  0  0  0  0  0
   34.8093   37.9508   54.5427 O   0  0  0  0  0  0  0  0  0  0  0  0
   34.2836   36.9939   55.3519 C   0  0  0  0  0  0  0  0  0  0  0  0
   33.5616   37.3572   56.4795 C   0  0  0  0  0  0  0  0  0  0  0  0
   33.0287   36.3826   57.3007 C   0  0  0  0  0  0  0  0  0  0  0  0
   33.2147   35.0460   57.0000 C   0  0  0  0  0  0  0  0  0  0  0  0
   32.6326   33.9848   57.8978 C   0  0  0  0  0  0  0  0  0  0  0  0
   31.9221   34.6215   59.0095 N   0  0  0  0  0  0  0  0  0  0  0  0
   32.3069   34.3844   60.2793 C   0  0  0  0  0  0  0  0  0  0  0  0
   33.2433   33.6422   60.5019 O   0  0  0  0  0  0  0  0  0  0  0  0
   31.5898   35.0269   61.4012 C   0  0  0  0  0  0  0  0  0  0  0  0
   30.9327   36.2499   61.2190 C   0  0  0  0  0  0  0  0  0  0  0  0
   30.2759   36.8088   62.3009 C   0  0  0  0  0  0  0  0  0  0  0  0
   30.2941   36.1510   63.5179 C   0  0  0  0  0  0  0  0  0  0  0  0
   30.9173   34.9967   63.6588 N   0  0  0  0  0  0  0  0  0  0  0  0
   31.5561   34.4245   62.6593 C   0  0  0  0  0  0  0  0  0  0  0  0
   33.9386   34.6811   55.8800 C   0  0  0  0  0  0  0  0  0  0  0  0
   34.4685   35.6520   55.0522 C   0  0  0  0  0  0  0  0  0  0  0  0
   34.8898   36.9061   52.7621 H   0  0  0  0  0  0  0  0  0  0  0  0
   35.9053   38.3658   52.8413 H   0  0  0  0  0  0  0  0  0  0  0  0
   36.3871   36.8975   53.7244 H   0  0  0  0  0  0  0  0  0  0  0  0
   33.4167   38.4012   56.7152 H   0  0  0  0  0  0  0  0  0  0  0  0
   32.4665   36.6649   58.1786 H   0  0  0  0  0  0  0  0  0  0  0  0
   33.4354   33.3601   58.2898 H   0  0  0  0  0  0  0  0  0  0  0  0
   31.9376   33.3681   57.3282 H   0  0  0  0  0  0  0  0  0  0  0  0
   31.1748   35.2138   58.8318 H   0  0  0  0  0  0  0  0  0  0  0  0
   30.9387   36.7442   60.2589 H   0  0  0  0  0  0  0  0  0  0  0  0
   29.7583   37.7511   62.1977 H   0  0  0  0  0  0  0  0  0  0  0  0
   29.7864   36.5874   64.3653 H   0  0  0  0  0  0  0  0  0  0  0  0
   32.0583   33.4812   62.8149 H   0  0  0  0  0  0  0  0  0  0  0  0
   34.0865   33.6364   55.6498 H   0  0  0  0  0  0  0  0  0  0  0  0
   35.0304   35.3666   54.1751 H   0  0  0  0  0  0  0  0  0  0  0  0
  1  2  1  0  0  0  0
  1 19  1  0  0  0  0
  1 20  1  0  0  0  0
  1 21  1  0  0  0  0
  2  3  1  0  0  0  0
  3 18  2  0  0  0  0
  3  4  1  0  0  0  0
  4  5  2  0  0  0  0
  4 22  1  0  0  0  0
  5  6  1  0  0  0  0
  5 23  1  0  0  0  0
  6  7  1  0  0  0  0
  6 17  2  0  0  0  0
  7  8  1  0  0  0  0
  7 24  1  0  0  0  0
  7 25  1  0  0  0  0
  8  9  1  0  0  0  0
  8 26  1  0  0  0  0
  9 10  2  0  0  0  0
  9 11  1  0  0  0  0
 11 16  2  0  0  0  0
 11 12  1  0  0  0  0
 12 13  2  0  0  0  0
 12 27  1  0  0  0  0
 13 14  1  0  0  0  0
 13 28  1  0  0  0  0
 14 15  2  0  0  0  0
 14 29  1  0  0  0  0
 15 16  1  0  0  0  0
 16 30  1  0  0  0  0
 17 18  1  0  0  0  0
 17 31  1  0  0  0  0
 18 32  1  0  0  0  0
M  END
$$$$
