ZINC000000035549      none
 OpenBabel11202420153D

 42 44  0  0  1  0  0  0  0  0999 V2000
   32.5097   33.4750   61.6921 C   0  0  0  0  0  0  0  0  0  0  0  0
   31.4369   32.8428   60.8032 C   0  0  0  0  0  0  0  0  0  0  0  0
   30.8450   33.8643   59.9578 O   0  0  0  0  0  0  0  0  0  0  0  0
   31.4229   34.0766   58.7578 C   0  0  0  0  0  0  0  0  0  0  0  0
   31.4925   33.1719   57.9476 O   0  0  0  0  0  0  0  0  0  0  0  0
   31.9667   35.3962   58.4301 C   0  0  0  0  0  0  0  0  0  0  0  0
   31.9252   36.4604   59.2884 C   0  0  0  0  0  0  0  0  0  0  0  0
   31.3715   36.4273   60.5587 N   0  0  0  0  0  0  0  0  0  0  0  0
   31.3816   37.5344   61.3272 C   0  0  0  0  0  0  0  0  0  0  0  0
   31.8798   38.5581   60.9094 O   0  0  0  0  0  0  0  0  0  0  0  0
   30.7739   37.5001   62.7058 C   0  0  0  0  0  0  0  0  0  0  0  0
   29.3146   37.0555   62.8237 C   0  0  0  0  0  0  0  0  0  0  0  0
   29.6846   38.5266   63.0234 C   0  0  0  0  0  0  0  0  0  0  0  0
   32.6406   37.8332   58.5799 S   0  0  0  0  0  0  0  0  0  0  0  0
   33.0195   36.9742   57.0960 C   0  0  0  0  0  0  0  0  0  0  0  0
   32.6032   35.7046   57.1621 C   0  0  0  0  0  0  0  0  0  0  0  0
   32.7811   34.7029   56.0324 C   0  0  0  0  0  0  0  0  0  0  0  0
   33.0848   35.4656   54.7408 C   0  0  0  0  0  0  0  0  0  0  0  0
   34.2274   36.4530   54.9968 C   0  0  1  0  0  0  0  0  0  0  0  0
   35.0511   35.9374   55.4902 H   0  0  0  0  0  0  0  0  0  0  0  0
   34.7111   37.0349   53.6670 C   0  0  0  0  0  0  0  0  0  0  0  0
   33.7185   37.5832   55.8956 C   0  0  0  0  0  0  0  0  0  0  0  0
   32.0569   34.2454   62.3159 H   0  0  0  0  0  0  0  0  0  0  0  0
   32.9541   32.7082   62.3265 H   0  0  0  0  0  0  0  0  0  0  0  0
   33.2827   33.9217   61.0666 H   0  0  0  0  0  0  0  0  0  0  0  0
   30.6640   32.3960   61.4285 H   0  0  0  0  0  0  0  0  0  0  0  0
   31.8897   32.0723   60.1792 H   0  0  0  0  0  0  0  0  0  0  0  0
   30.9730   35.6086   60.8928 H   0  0  0  0  0  0  0  0  0  0  0  0
   31.4522   37.2204   63.5119 H   0  0  0  0  0  0  0  0  0  0  0  0
   28.7942   36.7878   61.9041 H   0  0  0  0  0  0  0  0  0  0  0  0
   29.0328   36.4830   63.7074 H   0  0  0  0  0  0  0  0  0  0  0  0
   29.6461   38.9219   64.0384 H   0  0  0  0  0  0  0  0  0  0  0  0
   29.4076   39.2267   62.2352 H   0  0  0  0  0  0  0  0  0  0  0  0
   33.6090   34.0330   56.2649 H   0  0  0  0  0  0  0  0  0  0  0  0
   31.8650   34.1253   55.9084 H   0  0  0  0  0  0  0  0  0  0  0  0
   32.1965   36.0112   54.4223 H   0  0  0  0  0  0  0  0  0  0  0  0
   33.3789   34.7622   53.9618 H   0  0  0  0  0  0  0  0  0  0  0  0
   35.5191   37.7425   53.8525 H   0  0  0  0  0  0  0  0  0  0  0  0
   35.0729   36.2294   53.0280 H   0  0  0  0  0  0  0  0  0  0  0  0
   33.8855   37.5474   53.1730 H   0  0  0  0  0  0  0  0  0  0  0  0
   33.0160   38.2042   55.3397 H   0  0  0  0  0  0  0  0  0  0  0  0
   34.5595   38.1900   56.2313 H   0  0  0  0  0  0  0  0  0  0  0  0
  1  2  1  0  0  0  0
  1 23  1  0  0  0  0
  1 24  1  0  0  0  0
  1 25  1  0  0  0  0
  2  3  1  0  0  0  0
  2 26  1  0  0  0  0
  2 27  1  0  0  0  0
  3  4  1  0  0  0  0
  4  5  2  0  0  0  0
  4  6  1  0  0  0  0
  6 16  1  0  0  0  0
  6  7  2  0  0  0  0
  7  8  1  0  0  0  0
  7 14  1  0  0  0  0
  8  9  1  0  0  0  0
  8 28  1  0  0  0  0
  9 10  2  0  0  0  0
  9 11  1  0  0  0  0
 11 13  1  0  0  0  0
 11 12  1  0  0  0  0
 11 29  1  0  0  0  0
 12 13  1  0  0  0  0
 12 30  1  0  0  0  0
 12 31  1  0  0  0  0
 13 32  1  0  0  0  0
 13 33  1  0  0  0  0
 14 15  1  0  0  0  0
 15 22  1  0  0  0  0
 15 16  2  0  0  0  0
 16 17  1  0  0  0  0
 17 18  1  0  0  0  0
 17 34  1  0  0  0  0
 17 35  1  0  0  0  0
 18 19  1  0  0  0  0
 18 36  1  0  0  0  0
 18 37  1  0  0  0  0
 19 20  1  1  0  0  0
 19 21  1  0  0  0  0
 19 22  1  0  0  0  0
 21 38  1  0  0  0  0
 21 39  1  0  0  0  0
 21 40  1  0  0  0  0
 22 41  1  0  0  0  0
 22 42  1  0  0  0  0
M  END
$$$$
