ZINC000000005807      none
 OpenBabel11202420153D

 39 41  0  0  0  0  0  0  0  0999 V2000
   29.7442   35.6695   59.9881 C   0  0  0  0  0  0  0  0  0  0  0  0
   30.6348   36.7630   60.5813 C   0  0  0  0  0  0  0  0  0  0  0  0
   32.0954   36.3088   60.5409 C   0  0  0  0  0  0  0  0  0  0  0  0
   32.5015   36.0497   59.1130 C   0  0  0  0  0  0  0  0  0  0  0  0
   33.0088   36.9337   58.3266 N   0  0  0  0  0  0  0  0  0  0  0  0
   33.3185   36.5496   57.0983 C   0  0  0  0  0  0  0  0  0  0  0  0
   33.9129   37.4557   56.0905 C   0  0  0  0  0  0  0  0  0  0  0  0
   33.6145   38.8184   56.1230 C   0  0  0  0  0  0  0  0  0  0  0  0
   34.1814   39.6528   55.1769 C   0  0  0  0  0  0  0  0  0  0  0  0
   35.0215   39.0974   54.2208 C   0  0  0  0  0  0  0  0  0  0  0  0
   35.2705   37.7381   54.2437 C   0  0  0  0  0  0  0  0  0  0  0  0
   34.7217   36.9647   55.1589 N   0  0  0  0  0  0  0  0  0  0  0  0
   33.0311   35.2299   56.8483 C   0  0  0  0  0  0  0  0  0  0  0  0
   33.2586   34.5141   55.5770 C   0  0  0  0  0  0  0  0  0  0  0  0
   32.6381   34.9516   54.4047 C   0  0  0  0  0  0  0  0  0  0  0  0
   32.8504   34.2749   53.2219 C   0  0  0  0  0  0  0  0  0  0  0  0
   33.6809   33.1682   53.1937 C   0  0  0  0  0  0  0  0  0  0  0  0
   34.3033   32.7326   54.3499 C   0  0  0  0  0  0  0  0  0  0  0  0
   34.0993   33.4000   55.5402 C   0  0  0  0  0  0  0  0  0  0  0  0
   34.7777   32.9238   56.7987 C   0  0  0  0  0  0  0  0  0  0  0  0
   32.3494   34.5436   58.3208 S   0  0  0  0  0  0  0  0  0  0  0  0
   29.8562   34.7544   60.5697 H   0  0  0  0  0  0  0  0  0  0  0  0
   28.7036   35.9932   60.0169 H   0  0  0  0  0  0  0  0  0  0  0  0
   30.0379   35.4820   58.9553 H   0  0  0  0  0  0  0  0  0  0  0  0
   30.3411   36.9506   61.6141 H   0  0  0  0  0  0  0  0  0  0  0  0
   30.5228   37.6781   59.9997 H   0  0  0  0  0  0  0  0  0  0  0  0
   32.2075   35.3937   61.1223 H   0  0  0  0  0  0  0  0  0  0  0  0
   32.7299   37.0878   60.9634 H   0  0  0  0  0  0  0  0  0  0  0  0
   32.9531   39.2163   56.8783 H   0  0  0  0  0  0  0  0  0  0  0  0
   33.9723   40.7124   55.1792 H   0  0  0  0  0  0  0  0  0  0  0  0
   35.4759   39.7219   53.4659 H   0  0  0  0  0  0  0  0  0  0  0  0
   35.9235   37.3038   53.5012 H   0  0  0  0  0  0  0  0  0  0  0  0
   31.9900   35.8154   54.4253 H   0  0  0  0  0  0  0  0  0  0  0  0
   32.3677   34.6095   52.3156 H   0  0  0  0  0  0  0  0  0  0  0  0
   33.8437   32.6420   52.2647 H   0  0  0  0  0  0  0  0  0  0  0  0
   34.9498   31.8681   54.3210 H   0  0  0  0  0  0  0  0  0  0  0  0
   35.6958   33.4906   56.9535 H   0  0  0  0  0  0  0  0  0  0  0  0
   35.0163   31.8644   56.7043 H   0  0  0  0  0  0  0  0  0  0  0  0
   34.1116   33.0717   57.6488 H   0  0  0  0  0  0  0  0  0  0  0  0
  1  2  1  0  0  0  0
  1 22  1  0  0  0  0
  1 23  1  0  0  0  0
  1 24  1  0  0  0  0
  2  3  1  0  0  0  0
  2 25  1  0  0  0  0
  2 26  1  0  0  0  0
  3  4  1  0  0  0  0
  3 27  1  0  0  0  0
  3 28  1  0  0  0  0
  4 21  1  0  0  0  0
  4  5  2  0  0  0  0
  5  6  1  0  0  0  0
  6  7  1  0  0  0  0
  6 13  2  0  0  0  0
  7 12  2  0  0  0  0
  7  8  1  0  0  0  0
  8  9  2  0  0  0  0
  8 29  1  0  0  0  0
  9 10  1  0  0  0  0
  9 30  1  0  0  0  0
 10 11  2  0  0  0  0
 10 31  1  0  0  0  0
 11 12  1  0  0  0  0
 11 32  1  0  0  0  0
 13 14  1  0  0  0  0
 13 21  1  0  0  0  0
 14 19  2  0  0  0  0
 14 15  1  0  0  0  0
 15 16  2  0  0  0  0
 15 33  1  0  0  0  0
 16 17  1  0  0  0  0
 16 34  1  0  0  0  0
 17 18  2  0  0  0  0
 17 35  1  0  0  0  0
 18 19  1  0  0  0  0
 18 36  1  0  0  0  0
 19 20  1  0  0  0  0
 20 37  1  0  0  0  0
 20 38  1  0  0  0  0
 20 39  1  0  0  0  0
M  END
$$$$
