ZINC000000039523      none
 OpenBabel11202420153D

 20 20  0  0  0  0  0  0  0  0999 V2000
   32.3429   36.6830   64.2068 N   0  0  0  0  0  0  0  0  0  0  0  0
   32.8446   37.0590   62.9930 N   0  0  0  0  0  0  0  0  0  0  0  0
   32.0494   37.0554   61.9049 C   0  0  0  0  0  0  0  0  0  0  0  0
   30.4108   36.5794   62.0435 S   0  0  0  0  0  0  0  0  0  0  0  0
   32.5444   37.4264   60.7073 N   0  0  0  0  0  0  0  0  0  0  0  0
   31.6801   37.4223   59.5245 C   0  0  0  0  0  0  0  0  0  0  0  0
   32.4702   37.8748   58.3236 C   0  0  0  0  0  0  0  0  0  0  0  0
   33.1568   37.0730   57.5082 C   0  0  0  0  0  0  0  0  0  0  0  0
   33.8072   37.7162   56.4692 C   0  0  0  0  0  0  0  0  0  0  0  0
   33.6530   39.0409   56.4439 C   0  0  0  0  0  0  0  0  0  0  0  0
   32.6287   39.5411   57.7834 S   0  0  0  0  0  0  0  0  0  0  0  0
   33.0517   36.7360   64.9230 H   0  0  0  0  0  0  0  0  0  0  0  0
   31.5376   37.2385   64.4530 H   0  0  0  0  0  0  0  0  0  0  0  0
   33.7730   37.3287   62.9145 H   0  0  0  0  0  0  0  0  0  0  0  0
   33.4728   37.6960   60.6288 H   0  0  0  0  0  0  0  0  0  0  0  0
   30.8420   38.1005   59.6846 H   0  0  0  0  0  0  0  0  0  0  0  0
   31.3038   36.4139   59.3529 H   0  0  0  0  0  0  0  0  0  0  0  0
   33.2016   36.0030   57.6479 H   0  0  0  0  0  0  0  0  0  0  0  0
   34.3985   37.1861   55.7373 H   0  0  0  0  0  0  0  0  0  0  0  0
   34.0887   39.7046   55.7117 H   0  0  0  0  0  0  0  0  0  0  0  0
  1  2  1  0  0  0  0
  1 12  1  0  0  0  0
  1 13  1  0  0  0  0
  2  3  1  0  0  0  0
  2 14  1  0  0  0  0
  3  4  2  0  0  0  0
  3  5  1  0  0  0  0
  5  6  1  0  0  0  0
  5 15  1  0  0  0  0
  6  7  1  0  0  0  0
  6 16  1  0  0  0  0
  6 17  1  0  0  0  0
  7 11  1  0  0  0  0
  7  8  2  0  0  0  0
  8  9  1  0  0  0  0
  8 18  1  0  0  0  0
  9 10  2  0  0  0  0
  9 19  1  0  0  0  0
 10 11  1  0  0  0  0
 10 20  1  0  0  0  0
M  END
$$$$
