ZINC000000031374      none
 OpenBabel11202420163D

 39 41  0  0  1  0  0  0  0  0999 V2000
   31.9095   34.5809   62.9599 C   0  0  0  0  0  0  0  0  0  0  0  0
   31.3669   35.9065   63.4283 C   0  0  0  0  0  0  0  0  0  0  0  0
   31.4053   36.3998   64.6745 C   0  0  0  0  0  0  0  0  0  0  0  0
   30.8140   37.6049   64.6913 O   0  0  0  0  0  0  0  0  0  0  0  0
   30.3791   37.9412   63.4741 C   0  0  0  0  0  0  0  0  0  0  0  0
   29.6674   39.2196   63.1135 C   0  0  0  0  0  0  0  0  0  0  0  0
   30.6896   36.9261   62.6106 C   0  0  0  0  0  0  0  0  0  0  0  0
   30.4023   36.8642   61.1745 C   0  0  0  0  0  0  0  0  0  0  0  0
   29.7065   35.9738   60.7328 O   0  0  0  0  0  0  0  0  0  0  0  0
   30.9713   37.9064   60.2467 C   0  0  0  0  0  0  0  0  0  0  0  0
   32.3359   37.4421   59.7335 C   0  0  1  0  0  0  0  0  0  0  0  0
   33.3368   37.6304   60.7358 O   0  0  0  0  0  0  0  0  0  0  0  0
   32.2793   35.9908   59.3062 C   0  0  0  0  0  0  0  0  0  0  0  0
   32.0153   35.0414   60.0133 O   0  0  0  0  0  0  0  0  0  0  0  0
   32.5771   35.9522   57.9965 N   0  0  0  0  0  0  0  0  0  0  0  0
   32.6279   34.7196   57.2065 C   0  0  0  0  0  0  0  0  0  0  0  0
   32.8327   37.2211   57.4754 C   0  0  0  0  0  0  0  0  0  0  0  0
   33.1731   37.6247   56.1855 C   0  0  0  0  0  0  0  0  0  0  0  0
   33.3741   38.9609   55.9085 C   0  0  0  0  0  0  0  0  0  0  0  0
   33.2505   39.9086   56.9081 C   0  0  0  0  0  0  0  0  0  0  0  0
   32.9127   39.5155   58.1914 C   0  0  0  0  0  0  0  0  0  0  0  0
   32.7063   38.1830   58.4693 C   0  0  0  0  0  0  0  0  0  0  0  0
   32.9464   34.7029   62.6470 H   0  0  0  0  0  0  0  0  0  0  0  0
   31.8584   33.8589   63.7750 H   0  0  0  0  0  0  0  0  0  0  0  0
   31.3160   34.2222   62.1189 H   0  0  0  0  0  0  0  0  0  0  0  0
   31.8394   35.9043   65.5304 H   0  0  0  0  0  0  0  0  0  0  0  0
   28.5949   39.0923   63.2607 H   0  0  0  0  0  0  0  0  0  0  0  0
   30.0279   40.0281   63.7497 H   0  0  0  0  0  0  0  0  0  0  0  0
   29.8646   39.4632   62.0696 H   0  0  0  0  0  0  0  0  0  0  0  0
   31.0864   38.8476   60.7843 H   0  0  0  0  0  0  0  0  0  0  0  0
   30.2957   38.0500   59.4035 H   0  0  0  0  0  0  0  0  0  0  0  0
   33.4729   38.5542   60.9872 H   0  0  0  0  0  0  0  0  0  0  0  0
   32.3906   33.8687   57.8452 H   0  0  0  0  0  0  0  0  0  0  0  0
   31.9027   34.7780   56.3949 H   0  0  0  0  0  0  0  0  0  0  0  0
   33.6282   34.5947   56.7919 H   0  0  0  0  0  0  0  0  0  0  0  0
   33.2752   36.8902   55.4004 H   0  0  0  0  0  0  0  0  0  0  0  0
   33.6334   39.2684   54.9062 H   0  0  0  0  0  0  0  0  0  0  0  0
   33.4126   40.9533   56.6870 H   0  0  0  0  0  0  0  0  0  0  0  0
   32.8109   40.2532   58.9737 H   0  0  0  0  0  0  0  0  0  0  0  0
  1  2  1  0  0  0  0
  1 23  1  0  0  0  0
  1 24  1  0  0  0  0
  1 25  1  0  0  0  0
  2  7  1  0  0  0  0
  2  3  2  0  0  0  0
  3  4  1  0  0  0  0
  3 26  1  0  0  0  0
  4  5  1  0  0  0  0
  5  6  1  0  0  0  0
  5  7  2  0  0  0  0
  6 27  1  0  0  0  0
  6 28  1  0  0  0  0
  6 29  1  0  0  0  0
  7  8  1  0  0  0  0
  8  9  2  0  0  0  0
  8 10  1  0  0  0  0
 10 11  1  0  0  0  0
 10 30  1  0  0  0  0
 10 31  1  0  0  0  0
 11 22  1  0  0  0  0
 11 12  1  1  0  0  0
 11 13  1  0  0  0  0
 12 32  1  0  0  0  0
 13 14  2  0  0  0  0
 13 15  1  0  0  0  0
 15 16  1  0  0  0  0
 15 17  1  0  0  0  0
 16 33  1  0  0  0  0
 16 34  1  0  0  0  0
 16 35  1  0  0  0  0
 17 22  2  0  0  0  0
 17 18  1  0  0  0  0
 18 19  2  0  0  0  0
 18 36  1  0  0  0  0
 19 20  1  0  0  0  0
 19 37  1  0  0  0  0
 20 21  2  0  0  0  0
 20 38  1  0  0  0  0
 21 22  1  0  0  0  0
 21 39  1  0  0  0  0
M  END
$$$$
