ZINC000000033276      none
 OpenBabel11202420153D

 36 37  0  0  0  0  0  0  0  0999 V2000
   33.0683   38.4261   66.6028 C   0  0  0  0  0  0  0  0  0  0  0  0
   32.5676   37.2391   65.8210 C   0  0  0  0  0  0  0  0  0  0  0  0
   31.7293   36.5064   66.3018 O   0  0  0  0  0  0  0  0  0  0  0  0
   33.0513   36.9918   64.5876 N   0  0  0  0  0  0  0  0  0  0  0  0
   32.5875   35.8923   63.8635 C   0  0  0  0  0  0  0  0  0  0  0  0
   32.9920   35.5475   62.6352 N   0  0  0  0  0  0  0  0  0  0  0  0
   32.3568   34.4629   62.2463 C   0  0  0  0  0  0  0  0  0  0  0  0
   32.5584   33.6376   60.7026 S   0  0  0  0  0  0  0  0  0  0  0  0
   31.3059   34.4985   59.7198 C   0  0  0  0  0  0  0  0  0  0  0  0
   31.8528   35.8252   59.2596 C   0  0  0  0  0  0  0  0  0  0  0  0
   31.6816   36.9522   60.0417 C   0  0  0  0  0  0  0  0  0  0  0  0
   32.1833   38.1691   59.6195 C   0  0  0  0  0  0  0  0  0  0  0  0
   32.8563   38.2591   58.4154 C   0  0  0  0  0  0  0  0  0  0  0  0
   33.3932   39.5623   57.9632 N   0  0  0  0  0  0  0  0  0  0  0  0
   33.2420   40.5553   58.6521 O   0  0  0  0  0  0  0  0  0  0  0  0
   33.9904   39.6406   56.9046 O   0  0  0  0  0  0  0  0  0  0  0  0
   33.0229   37.1331   57.6309 C   0  0  0  0  0  0  0  0  0  0  0  0
   32.5262   35.9151   58.0558 C   0  0  0  0  0  0  0  0  0  0  0  0
   31.5088   34.0950   63.2519 N   0  0  0  0  0  0  0  0  0  0  0  0
   30.6699   33.0403   63.2576 C   0  0  0  0  0  0  0  0  0  0  0  0
   29.7975   32.7776   64.4580 C   0  0  0  0  0  0  0  0  0  0  0  0
   30.6171   32.3027   62.2970 O   0  0  0  0  0  0  0  0  0  0  0  0
   31.6882   35.0351   64.2798 N   0  0  0  0  0  0  0  0  0  0  0  0
   32.4466   39.2942   66.3833 H   0  0  0  0  0  0  0  0  0  0  0  0
   33.0208   38.2054   67.6691 H   0  0  0  0  0  0  0  0  0  0  0  0
   34.0999   38.6377   66.3212 H   0  0  0  0  0  0  0  0  0  0  0  0
   33.7218   37.5779   64.2031 H   0  0  0  0  0  0  0  0  0  0  0  0
   30.4167   34.6635   60.3285 H   0  0  0  0  0  0  0  0  0  0  0  0
   31.0450   33.8925   58.8522 H   0  0  0  0  0  0  0  0  0  0  0  0
   31.1555   36.8819   60.9823 H   0  0  0  0  0  0  0  0  0  0  0  0
   32.0492   39.0497   60.2303 H   0  0  0  0  0  0  0  0  0  0  0  0
   33.5449   37.2043   56.6881 H   0  0  0  0  0  0  0  0  0  0  0  0
   32.6603   35.0346   57.4449 H   0  0  0  0  0  0  0  0  0  0  0  0
   29.9823   33.5398   65.2151 H   0  0  0  0  0  0  0  0  0  0  0  0
   28.7496   32.8089   64.1595 H   0  0  0  0  0  0  0  0  0  0  0  0
   30.0295   31.7947   64.8678 H   0  0  0  0  0  0  0  0  0  0  0  0
  1  2  1  0  0  0  0
  1 24  1  0  0  0  0
  1 25  1  0  0  0  0
  1 26  1  0  0  0  0
  2  3  2  0  0  0  0
  2  4  1  0  0  0  0
  4  5  1  0  0  0  0
  4 27  1  0  0  0  0
  5 23  2  0  0  0  0
  5  6  1  0  0  0  0
  6  7  2  0  0  0  0
  7  8  1  0  0  0  0
  7 19  1  0  0  0  0
  8  9  1  0  0  0  0
  9 10  1  0  0  0  0
  9 28  1  0  0  0  0
  9 29  1  0  0  0  0
 10 18  2  0  0  0  0
 10 11  1  0  0  0  0
 11 12  2  0  0  0  0
 11 30  1  0  0  0  0
 12 13  1  0  0  0  0
 12 31  1  0  0  0  0
 13 14  1  0  0  0  0
 13 17  2  0  0  0  0
 14 15  2  0  0  0  0
 14 16  2  0  0  0  0
 17 18  1  0  0  0  0
 17 32  1  0  0  0  0
 18 33  1  0  0  0  0
 19 20  1  0  0  0  0
 19 23  1  0  0  0  0
 20 21  1  0  0  0  0
 20 22  2  0  0  0  0
 21 34  1  0  0  0  0
 21 35  1  0  0  0  0
 21 36  1  0  0  0  0
M  END
$$$$
