ZINC000000018250      none
 OpenBabel11202420153D

 38 38  0  0  0  0  0  0  0  0999 V2000
   31.4054   37.5682   64.4554 C   0  0  0  0  0  0  0  0  0  0  0  0
   31.0243   36.2330   63.8127 C   0  0  0  0  0  0  0  0  0  0  0  0
   31.4294   36.2404   62.3613 C   0  0  0  0  0  0  0  0  0  0  0  0
   32.2167   35.4161   61.9471 O   0  0  0  0  0  0  0  0  0  0  0  0
   30.9169   37.1634   61.5233 N   0  0  0  0  0  0  0  0  0  0  0  0
   31.3106   37.1706   60.1122 C   0  0  0  0  0  0  0  0  0  0  0  0
   32.5412   38.0615   59.9307 C   0  0  0  0  0  0  0  0  0  0  0  0
   32.9462   38.0689   58.4792 C   0  0  0  0  0  0  0  0  0  0  0  0
   32.9931   36.8849   57.7684 C   0  0  0  0  0  0  0  0  0  0  0  0
   33.3642   36.8910   56.4368 C   0  0  0  0  0  0  0  0  0  0  0  0
   33.4144   35.5981   55.6640 C   0  0  0  0  0  0  0  0  0  0  0  0
   33.0129   34.4404   56.5800 C   0  0  0  0  0  0  0  0  0  0  0  0
   33.6889   38.0814   55.8125 C   0  0  0  0  0  0  0  0  0  0  0  0
   33.6385   39.2682   56.5172 C   0  0  0  0  0  0  0  0  0  0  0  0
   33.2719   39.2641   57.8554 C   0  0  0  0  0  0  0  0  0  0  0  0
   33.2266   40.4300   58.5523 O   0  0  0  0  0  0  0  0  0  0  0  0
   34.4227   40.8315   59.2235 C   0  0  0  0  0  0  0  0  0  0  0  0
   30.8921   38.3796   63.9390 H   0  0  0  0  0  0  0  0  0  0  0  0
   31.1124   37.5630   65.5052 H   0  0  0  0  0  0  0  0  0  0  0  0
   32.4829   37.7137   64.3796 H   0  0  0  0  0  0  0  0  0  0  0  0
   29.9467   36.0876   63.8886 H   0  0  0  0  0  0  0  0  0  0  0  0
   31.5375   35.4218   64.3291 H   0  0  0  0  0  0  0  0  0  0  0  0
   30.2872   37.8227   61.8545 H   0  0  0  0  0  0  0  0  0  0  0  0
   30.4900   37.5571   59.5079 H   0  0  0  0  0  0  0  0  0  0  0  0
   31.5477   36.1547   59.7960 H   0  0  0  0  0  0  0  0  0  0  0  0
   33.3619   37.6750   60.5350 H   0  0  0  0  0  0  0  0  0  0  0  0
   32.3042   39.0772   60.2469 H   0  0  0  0  0  0  0  0  0  0  0  0
   32.7400   35.9539   58.2538 H   0  0  0  0  0  0  0  0  0  0  0  0
   32.7243   35.6513   54.8218 H   0  0  0  0  0  0  0  0  0  0  0  0
   34.4268   35.4349   55.2944 H   0  0  0  0  0  0  0  0  0  0  0  0
   32.0005   34.6037   56.9496 H   0  0  0  0  0  0  0  0  0  0  0  0
   33.0492   33.5054   56.0211 H   0  0  0  0  0  0  0  0  0  0  0  0
   33.7029   34.3872   57.4222 H   0  0  0  0  0  0  0  0  0  0  0  0
   33.9781   38.0835   54.7719 H   0  0  0  0  0  0  0  0  0  0  0  0
   33.8878   40.1983   56.0280 H   0  0  0  0  0  0  0  0  0  0  0  0
   34.2501   41.7758   59.7398 H   0  0  0  0  0  0  0  0  0  0  0  0
   34.7065   40.0680   59.9480 H   0  0  0  0  0  0  0  0  0  0  0  0
   35.2237   40.9566   58.4950 H   0  0  0  0  0  0  0  0  0  0  0  0
  1  2  1  0  0  0  0
  1 18  1  0  0  0  0
  1 19  1  0  0  0  0
  1 20  1  0  0  0  0
  2  3  1  0  0  0  0
  2 21  1  0  0  0  0
  2 22  1  0  0  0  0
  3  4  2  0  0  0  0
  3  5  1  0  0  0  0
  5  6  1  0  0  0  0
  5 23  1  0  0  0  0
  6  7  1  0  0  0  0
  6 24  1  0  0  0  0
  6 25  1  0  0  0  0
  7  8  1  0  0  0  0
  7 26  1  0  0  0  0
  7 27  1  0  0  0  0
  8 15  2  0  0  0  0
  8  9  1  0  0  0  0
  9 10  2  0  0  0  0
  9 28  1  0  0  0  0
 10 11  1  0  0  0  0
 10 13  1  0  0  0  0
 11 12  1  0  0  0  0
 11 29  1  0  0  0  0
 11 30  1  0  0  0  0
 12 31  1  0  0  0  0
 12 32  1  0  0  0  0
 12 33  1  0  0  0  0
 13 14  2  0  0  0  0
 13 34  1  0  0  0  0
 14 15  1  0  0  0  0
 14 35  1  0  0  0  0
 15 16  1  0  0  0  0
 16 17  1  0  0  0  0
 17 36  1  0  0  0  0
 17 37  1  0  0  0  0
 17 38  1  0  0  0  0
M  END
$$$$
