ZINC000000009057      none
 OpenBabel11202420153D

 24 26  0  0  0  0  0  0  0  0999 V2000
   32.6867   33.1636   61.7629 C   0  0  0  0  0  0  0  0  0  0  0  0
   31.9693   34.1351   60.9336 N   0  0  0  0  0  0  0  0  0  0  0  0
   31.6927   33.8505   59.5231 C   0  0  0  0  0  0  0  0  0  0  0  0
   32.2211   34.9045   58.5922 C   0  0  0  0  0  0  0  0  0  0  0  0
   32.6095   34.5898   57.3217 C   0  0  0  0  0  0  0  0  0  0  0  0
   33.0782   35.5746   56.4630 C   0  0  0  0  0  0  0  0  0  0  0  0
   33.1518   36.8917   56.8580 C   0  0  0  0  0  0  0  0  0  0  0  0
   32.7649   37.2430   58.1560 C   0  0  0  0  0  0  0  0  0  0  0  0
   32.7191   38.7916   58.9865 S   0  0  0  0  0  0  0  0  0  0  0  0
   32.1492   38.0575   60.4757 C   0  0  0  0  0  0  0  0  0  0  0  0
   31.9936   36.7611   60.3526 C   0  0  0  0  0  0  0  0  0  0  0  0
   32.3181   36.2482   59.0117 C   0  0  0  0  0  0  0  0  0  0  0  0
   31.4514   35.5882   61.5808 S   0  0  0  0  0  0  0  0  0  0  0  0
   32.2196   35.8230   62.7530 O   0  0  0  0  0  0  0  0  0  0  0  0
   30.0307   35.5799   61.5546 O   0  0  0  0  0  0  0  0  0  0  0  0
   32.7924   33.5569   62.7740 H   0  0  0  0  0  0  0  0  0  0  0  0
   32.1273   32.2286   61.7933 H   0  0  0  0  0  0  0  0  0  0  0  0
   33.6743   32.9826   61.3385 H   0  0  0  0  0  0  0  0  0  0  0  0
   32.1468   32.8943   59.2632 H   0  0  0  0  0  0  0  0  0  0  0  0
   30.6141   33.7738   59.3864 H   0  0  0  0  0  0  0  0  0  0  0  0
   32.5557   33.5656   56.9834 H   0  0  0  0  0  0  0  0  0  0  0  0
   33.3868   35.3033   55.4642 H   0  0  0  0  0  0  0  0  0  0  0  0
   33.5055   37.6471   56.1719 H   0  0  0  0  0  0  0  0  0  0  0  0
   31.9511   38.6071   61.3840 H   0  0  0  0  0  0  0  0  0  0  0  0
  1  2  1  0  0  0  0
  1 16  1  0  0  0  0
  1 17  1  0  0  0  0
  1 18  1  0  0  0  0
  2 13  1  0  0  0  0
  2  3  1  0  0  0  0
  3  4  1  0  0  0  0
  3 19  1  0  0  0  0
  3 20  1  0  0  0  0
  4 12  2  0  0  0  0
  4  5  1  0  0  0  0
  5  6  2  0  0  0  0
  5 21  1  0  0  0  0
  6  7  1  0  0  0  0
  6 22  1  0  0  0  0
  7  8  2  0  0  0  0
  7 23  1  0  0  0  0
  8 12  1  0  0  0  0
  8  9  1  0  0  0  0
  9 10  1  0  0  0  0
 10 11  2  0  0  0  0
 10 24  1  0  0  0  0
 11 12  1  0  0  0  0
 11 13  1  0  0  0  0
 13 14  2  0  0  0  0
 13 15  2  0  0  0  0
M  END
$$$$
