ZINC000000034792      none
 OpenBabel11202420153D

 31 34  0  0  0  0  0  0  0  0999 V2000
   33.1929   35.6950   57.0645 O   0  0  0  0  0  0  0  0  0  0  0  0
   33.1269   36.8407   57.4685 C   0  0  0  0  0  0  0  0  0  0  0  0
   32.5995   37.1663   58.7928 C   0  0  0  0  0  0  0  0  0  0  0  0
   32.1262   36.3098   59.7323 C   0  0  0  0  0  0  0  0  0  0  0  0
   31.4834   36.8326   60.9465 C   0  0  0  0  0  0  0  0  0  0  0  0
   30.1037   37.0677   60.9661 C   0  0  0  0  0  0  0  0  0  0  0  0
   29.5049   37.5536   62.1089 C   0  0  0  0  0  0  0  0  0  0  0  0
   30.2645   37.8200   63.2342 C   0  0  0  0  0  0  0  0  0  0  0  0
   31.6350   37.5954   63.2240 C   0  0  0  0  0  0  0  0  0  0  0  0
   32.3745   37.8600   64.3332 O   0  0  0  0  0  0  0  0  0  0  0  0
   32.2485   37.1029   62.0854 C   0  0  0  0  0  0  0  0  0  0  0  0
   32.7194   38.9318   58.8955 S   0  0  0  0  0  0  0  0  0  0  0  0
   33.4098   39.1256   57.2748 C   0  0  0  0  0  0  0  0  0  0  0  0
   33.8377   40.0449   56.4410 N   0  0  0  0  0  0  0  0  0  0  0  0
   34.2619   39.4568   55.2941 C   0  0  0  0  0  0  0  0  0  0  0  0
   34.8007   39.9509   54.1024 C   0  0  0  0  0  0  0  0  0  0  0  0
   35.1418   39.0760   53.0945 C   0  0  0  0  0  0  0  0  0  0  0  0
   34.9554   37.7110   53.2522 C   0  0  0  0  0  0  0  0  0  0  0  0
   34.4236   37.2093   54.4244 C   0  0  0  0  0  0  0  0  0  0  0  0
   34.0769   38.0769   55.4453 C   0  0  0  0  0  0  0  0  0  0  0  0
   33.5279   37.8805   56.7250 N   0  0  0  0  0  0  0  0  0  0  0  0
   32.2217   35.2438   59.5882 H   0  0  0  0  0  0  0  0  0  0  0  0
   29.5082   36.8648   60.0883 H   0  0  0  0  0  0  0  0  0  0  0  0
   28.4398   37.7312   62.1245 H   0  0  0  0  0  0  0  0  0  0  0  0
   29.7893   38.2042   64.1248 H   0  0  0  0  0  0  0  0  0  0  0  0
   31.8593   38.2006   65.0774 H   0  0  0  0  0  0  0  0  0  0  0  0
   33.3142   36.9277   62.0768 H   0  0  0  0  0  0  0  0  0  0  0  0
   34.9491   41.0128   53.9728 H   0  0  0  0  0  0  0  0  0  0  0  0
   35.5578   39.4565   52.1734 H   0  0  0  0  0  0  0  0  0  0  0  0
   35.2269   37.0363   52.4538 H   0  0  0  0  0  0  0  0  0  0  0  0
   34.2802   36.1455   54.5439 H   0  0  0  0  0  0  0  0  0  0  0  0
  1  2  2  0  0  0  0
  2 21  1  0  0  0  0
  2  3  1  0  0  0  0
  3  4  2  0  0  0  0
  3 12  1  0  0  0  0
  4  5  1  0  0  0  0
  4 22  1  0  0  0  0
  5 11  2  0  0  0  0
  5  6  1  0  0  0  0
  6  7  2  0  0  0  0
  6 23  1  0  0  0  0
  7  8  1  0  0  0  0
  7 24  1  0  0  0  0
  8  9  2  0  0  0  0
  8 25  1  0  0  0  0
  9 10  1  0  0  0  0
  9 11  1  0  0  0  0
 10 26  1  0  0  0  0
 11 27  1  0  0  0  0
 12 13  1  0  0  0  0
 13 21  1  0  0  0  0
 13 14  2  0  0  0  0
 14 15  1  0  0  0  0
 15 20  2  0  0  0  0
 15 16  1  0  0  0  0
 16 17  2  0  0  0  0
 16 28  1  0  0  0  0
 17 18  1  0  0  0  0
 17 29  1  0  0  0  0
 18 19  2  0  0  0  0
 18 30  1  0  0  0  0
 19 20  1  0  0  0  0
 19 31  1  0  0  0  0
 20 21  1  0  0  0  0
M  END
$$$$
