ZINC000000032013      none
 OpenBabel11202420163D

 24 25  0  0  0  0  0  0  0  0999 V2000
   34.9731   33.2614   54.6516 C   0  0  0  0  0  0  0  0  0  0  0  0
   34.2355   33.1486   55.9874 C   0  0  0  0  0  0  0  0  0  0  0  0
   33.8661   34.4529   56.4392 O   0  0  0  0  0  0  0  0  0  0  0  0
   33.2026   34.5301   57.6122 C   0  0  0  0  0  0  0  0  0  0  0  0
   32.9452   33.5157   58.2337 O   0  0  0  0  0  0  0  0  0  0  0  0
   32.8064   35.7897   58.1192 C   0  0  0  0  0  0  0  0  0  0  0  0
   32.1259   36.0317   59.2956 C   0  0  0  0  0  0  0  0  0  0  0  0
   31.6649   34.9916   60.2839 C   0  0  0  0  0  0  0  0  0  0  0  0
   31.9496   37.3401   59.4014 N   0  0  0  0  0  0  0  0  0  0  0  0
   32.4845   37.9541   58.3483 C   0  0  0  0  0  0  0  0  0  0  0  0
   32.7216   39.5638   57.6669 S   0  0  0  0  0  0  0  0  0  0  0  0
   33.5584   38.8756   56.2825 C   0  0  0  0  0  0  0  0  0  0  0  0
   33.6082   37.5711   56.4026 C   0  0  0  0  0  0  0  0  0  0  0  0
   33.0265   37.0424   57.5263 N   0  0  0  0  0  0  0  0  0  0  0  0
   35.8691   33.8682   54.7816 H   0  0  0  0  0  0  0  0  0  0  0  0
   35.2548   32.2665   54.3070 H   0  0  0  0  0  0  0  0  0  0  0  0
   34.3208   33.7300   53.9148 H   0  0  0  0  0  0  0  0  0  0  0  0
   34.8877   32.6800   56.7242 H   0  0  0  0  0  0  0  0  0  0  0  0
   33.3393   32.5417   55.8573 H   0  0  0  0  0  0  0  0  0  0  0  0
   32.4476   34.8205   61.0229 H   0  0  0  0  0  0  0  0  0  0  0  0
   30.7624   35.3415   60.7849 H   0  0  0  0  0  0  0  0  0  0  0  0
   31.4514   34.0608   59.7585 H   0  0  0  0  0  0  0  0  0  0  0  0
   33.9723   39.4414   55.4608 H   0  0  0  0  0  0  0  0  0  0  0  0
   34.0806   36.9477   55.6580 H   0  0  0  0  0  0  0  0  0  0  0  0
  1  2  1  0  0  0  0
  1 15  1  0  0  0  0
  1 16  1  0  0  0  0
  1 17  1  0  0  0  0
  2  3  1  0  0  0  0
  2 18  1  0  0  0  0
  2 19  1  0  0  0  0
  3  4  1  0  0  0  0
  4  5  2  0  0  0  0
  4  6  1  0  0  0  0
  6 14  1  0  0  0  0
  6  7  2  0  0  0  0
  7  8  1  0  0  0  0
  7  9  1  0  0  0  0
  8 20  1  0  0  0  0
  8 21  1  0  0  0  0
  8 22  1  0  0  0  0
  9 10  2  0  0  0  0
 10 14  1  0  0  0  0
 10 11  1  0  0  0  0
 11 12  1  0  0  0  0
 12 13  2  0  0  0  0
 12 23  1  0  0  0  0
 13 14  1  0  0  0  0
 13 24  1  0  0  0  0
M  END
$$$$
