ZINC000000002857      none
 OpenBabel11202420153D

 31 33  0  0  1  0  0  0  0  0999 V2000
   29.0545   37.8895   65.0334 N   0  0  0  0  0  0  0  0  0  0  0  0
   29.5476   37.6316   64.0432 C   0  0  0  0  0  0  0  0  0  0  0  0
   30.1694   37.3064   62.7948 C   0  0  0  0  0  0  0  0  0  0  0  0
   31.5632   37.3010   62.6868 C   0  0  0  0  0  0  0  0  0  0  0  0
   32.1576   36.9883   61.4851 C   0  0  0  0  0  0  0  0  0  0  0  0
   31.3727   36.6776   60.3787 C   0  0  0  0  0  0  0  0  0  0  0  0
   31.9777   36.3613   59.1641 N   0  0  0  0  0  0  0  0  0  0  0  0
   31.7549   35.1234   58.5802 C   0  0  0  0  0  0  0  0  0  0  0  0
   30.9656   34.2294   59.1698 N   0  0  0  0  0  0  0  0  0  0  0  0
   30.7528   33.0533   58.6159 C   0  0  0  0  0  0  0  0  0  0  0  0
   31.3053   32.7135   57.4690 N   0  0  0  0  0  0  0  0  0  0  0  0
   32.1048   33.5507   56.8209 C   0  0  0  0  0  0  0  0  0  0  0  0
   32.3555   34.7938   57.3644 C   0  0  0  0  0  0  0  0  0  0  0  0
   33.2849   35.5726   56.4636 C   0  0  0  0  0  0  0  0  0  0  0  0
   33.9214   34.5199   55.5304 C   0  0  0  0  0  0  0  0  0  0  0  0
   32.8489   33.4054   55.5126 C   0  0  2  0  0  0  0  0  0  0  0  0
   33.3217   32.4251   55.4533 H   0  0  0  0  0  0  0  0  0  0  0  0
   31.9573   33.5926   54.4117 O   0  0  0  0  0  0  0  0  0  0  0  0
   29.9849   36.6876   60.4812 C   0  0  0  0  0  0  0  0  0  0  0  0
   29.3840   36.9943   61.6812 C   0  0  0  0  0  0  0  0  0  0  0  0
   32.1729   37.5420   63.5450 H   0  0  0  0  0  0  0  0  0  0  0  0
   33.2343   36.9839   61.4009 H   0  0  0  0  0  0  0  0  0  0  0  0
   32.5547   37.0069   58.7270 H   0  0  0  0  0  0  0  0  0  0  0  0
   30.1070   32.3470   59.1166 H   0  0  0  0  0  0  0  0  0  0  0  0
   32.7233   36.3037   55.8820 H   0  0  0  0  0  0  0  0  0  0  0  0
   34.0547   36.0701   57.0536 H   0  0  0  0  0  0  0  0  0  0  0  0
   34.0736   34.9289   54.5315 H   0  0  0  0  0  0  0  0  0  0  0  0
   34.8587   34.1499   55.9457 H   0  0  0  0  0  0  0  0  0  0  0  0
   32.3837   33.5327   53.5458 H   0  0  0  0  0  0  0  0  0  0  0  0
   29.3786   36.4504   59.6195 H   0  0  0  0  0  0  0  0  0  0  0  0
   28.3069   36.9976   61.7612 H   0  0  0  0  0  0  0  0  0  0  0  0
  1  2  3  0  0  0  0
  2  3  1  0  0  0  0
  3 20  2  0  0  0  0
  3  4  1  0  0  0  0
  4  5  2  0  0  0  0
  4 21  1  0  0  0  0
  5  6  1  0  0  0  0
  5 22  1  0  0  0  0
  6  7  1  0  0  0  0
  6 19  2  0  0  0  0
  7  8  1  0  0  0  0
  7 23  1  0  0  0  0
  8 13  2  0  0  0  0
  8  9  1  0  0  0  0
  9 10  2  0  0  0  0
 10 11  1  0  0  0  0
 10 24  1  0  0  0  0
 11 12  2  0  0  0  0
 12 16  1  0  0  0  0
 12 13  1  0  0  0  0
 13 14  1  0  0  0  0
 14 15  1  0  0  0  0
 14 25  1  0  0  0  0
 14 26  1  0  0  0  0
 15 16  1  0  0  0  0
 15 27  1  0  0  0  0
 15 28  1  0  0  0  0
 16 17  1  6  0  0  0
 16 18  1  0  0  0  0
 18 29  1  0  0  0  0
 19 20  1  0  0  0  0
 19 30  1  0  0  0  0
 20 31  1  0  0  0  0
M  END
$$$$
