ZINC000000048721      none
 OpenBabel11202420153D

 39 41  0  0  1  0  0  0  0  0999 V2000
   32.4297   36.9630   58.9909 C   0  0  0  0  0  0  0  0  0  0  0  0
   31.8317   35.6227   59.4234 C   0  0  0  0  0  0  0  0  0  0  0  0
   31.3865   35.7139   60.8025 O   0  0  0  0  0  0  0  0  0  0  0  0
   30.4446   36.6381   61.0821 C   0  0  0  0  0  0  0  0  0  0  0  0
   29.6324   36.9546   60.2339 O   0  0  0  0  0  0  0  0  0  0  0  0
   30.4000   37.2606   62.4072 C   0  0  0  0  0  0  0  0  0  0  0  0
   29.9592   38.5234   62.6869 C   0  0  0  0  0  0  0  0  0  0  0  0
   30.0875   38.6976   64.0731 C   0  0  0  0  0  0  0  0  0  0  0  0
   30.6028   37.5519   64.5722 C   0  0  0  0  0  0  0  0  0  0  0  0
   30.9136   37.2885   66.0231 C   0  0  2  0  0  0  0  0  0  0  0  0
   31.3184   36.2820   66.1290 H   0  0  0  0  0  0  0  0  0  0  0  0
   29.6519   37.4062   66.8327 C   0  0  0  0  0  0  0  0  0  0  0  0
   28.6922   36.3440   66.7951 C   0  0  0  0  0  0  0  0  0  0  0  0
   27.9309   35.5014   66.7654 N   0  0  0  0  0  0  0  0  0  0  0  0
   29.4050   38.4969   67.5959 C   0  0  0  0  0  0  0  0  0  0  0  0
   28.2374   38.5560   68.3150 N   0  0  0  0  0  0  0  0  0  0  0  0
   30.2700   39.5242   67.6701 O   0  0  0  0  0  0  0  0  0  0  0  0
   31.5531   39.3495   67.2973 C   0  0  0  0  0  0  0  0  0  0  0  0
   32.5510   40.2587   67.7170 C   0  0  0  0  0  0  0  0  0  0  0  0
   33.8264   40.0653   67.3351 C   0  0  0  0  0  0  0  0  0  0  0  0
   34.8783   41.0431   67.7915 C   0  0  0  0  0  0  0  0  0  0  0  0
   34.1931   39.0363   66.5652 O   0  0  0  0  0  0  0  0  0  0  0  0
   33.2765   38.1531   66.1458 C   0  0  0  0  0  0  0  0  0  0  0  0
   33.6214   37.2176   65.4428 O   0  0  0  0  0  0  0  0  0  0  0  0
   31.9286   38.2874   66.5048 C   0  0  0  0  0  0  0  0  0  0  0  0
   30.7864   36.6875   63.5661 O   0  0  0  0  0  0  0  0  0  0  0  0
   33.2777   37.2060   59.6310 H   0  0  0  0  0  0  0  0  0  0  0  0
   32.7638   36.8945   57.9556 H   0  0  0  0  0  0  0  0  0  0  0  0
   31.6733   37.7432   59.0776 H   0  0  0  0  0  0  0  0  0  0  0  0
   32.5879   34.8426   59.3366 H   0  0  0  0  0  0  0  0  0  0  0  0
   30.9837   35.3796   58.7832 H   0  0  0  0  0  0  0  0  0  0  0  0
   29.5809   39.2457   61.9787 H   0  0  0  0  0  0  0  0  0  0  0  0
   29.8256   39.5815   64.6356 H   0  0  0  0  0  0  0  0  0  0  0  0
   27.6035   37.8231   68.2716 H   0  0  0  0  0  0  0  0  0  0  0  0
   28.0462   39.3306   68.8665 H   0  0  0  0  0  0  0  0  0  0  0  0
   32.2914   41.1019   68.3400 H   0  0  0  0  0  0  0  0  0  0  0  0
   35.2970   40.7094   68.7410 H   0  0  0  0  0  0  0  0  0  0  0  0
   35.6704   41.0996   67.0450 H   0  0  0  0  0  0  0  0  0  0  0  0
   34.4284   42.0278   67.9190 H   0  0  0  0  0  0  0  0  0  0  0  0
  1  2  1  0  0  0  0
  1 27  1  0  0  0  0
  1 28  1  0  0  0  0
  1 29  1  0  0  0  0
  2  3  1  0  0  0  0
  2 30  1  0  0  0  0
  2 31  1  0  0  0  0
  3  4  1  0  0  0  0
  4  5  2  0  0  0  0
  4  6  1  0  0  0  0
  6 26  1  0  0  0  0
  6  7  2  0  0  0  0
  7  8  1  0  0  0  0
  7 32  1  0  0  0  0
  8  9  2  0  0  0  0
  8 33  1  0  0  0  0
  9 10  1  0  0  0  0
  9 26  1  0  0  0  0
 10 11  1  1  0  0  0
 10 25  1  0  0  0  0
 10 12  1  0  0  0  0
 12 13  1  0  0  0  0
 12 15  2  0  0  0  0
 13 14  3  0  0  0  0
 15 16  1  0  0  0  0
 15 17  1  0  0  0  0
 16 34  1  0  0  0  0
 16 35  1  0  0  0  0
 17 18  1  0  0  0  0
 18 25  2  0  0  0  0
 18 19  1  0  0  0  0
 19 20  2  0  0  0  0
 19 36  1  0  0  0  0
 20 21  1  0  0  0  0
 20 22  1  0  0  0  0
 21 37  1  0  0  0  0
 21 38  1  0  0  0  0
 21 39  1  0  0  0  0
 22 23  1  0  0  0  0
 23 24  2  0  0  0  0
 23 25  1  0  0  0  0
M  END
$$$$
