ZINC000000024216      none
 OpenBabel11202420153D

 23 25  0  0  0  0  0  0  0  0999 V2000
   31.8184   37.1058   61.2355 O   0  0  0  0  0  0  0  0  0  0  0  0
   32.1478   36.6654   60.1510 C   0  0  0  0  0  0  0  0  0  0  0  0
   32.0680   35.3411   59.9207 N   0  0  0  0  0  0  0  0  0  0  0  0
   32.4567   34.7725   58.6254 C   0  0  0  0  0  0  0  0  0  0  0  0
   32.9524   35.6922   57.5382 C   0  0  0  0  0  0  0  0  0  0  0  0
   33.3213   35.2247   56.3167 C   0  0  0  0  0  0  0  0  0  0  0  0
   33.7811   36.0994   55.3324 C   0  0  0  0  0  0  0  0  0  0  0  0
   33.8638   37.4407   55.5592 C   0  0  0  0  0  0  0  0  0  0  0  0
   33.4849   37.9581   56.8092 C   0  0  0  0  0  0  0  0  0  0  0  0
   33.5484   39.3309   57.1021 C   0  0  0  0  0  0  0  0  0  0  0  0
   33.1735   39.7964   58.3257 C   0  0  0  0  0  0  0  0  0  0  0  0
   32.7167   38.9516   59.3316 C   0  0  0  0  0  0  0  0  0  0  0  0
   32.6279   37.5869   59.1100 C   0  0  0  0  0  0  0  0  0  0  0  0
   33.0250   37.0658   57.8044 C   0  0  0  0  0  0  0  0  0  0  0  0
   31.7485   34.7531   60.6229 H   0  0  0  0  0  0  0  0  0  0  0  0
   31.5943   34.2347   58.2316 H   0  0  0  0  0  0  0  0  0  0  0  0
   33.2376   34.0353   58.8122 H   0  0  0  0  0  0  0  0  0  0  0  0
   33.2622   34.1667   56.1079 H   0  0  0  0  0  0  0  0  0  0  0  0
   34.0739   35.7064   54.3699 H   0  0  0  0  0  0  0  0  0  0  0  0
   34.2180   38.1021   54.7824 H   0  0  0  0  0  0  0  0  0  0  0  0
   33.8980   40.0229   56.3503 H   0  0  0  0  0  0  0  0  0  0  0  0
   33.2332   40.8568   58.5218 H   0  0  0  0  0  0  0  0  0  0  0  0
   32.4283   39.3612   60.2884 H   0  0  0  0  0  0  0  0  0  0  0  0
  1  2  2  0  0  0  0
  2 13  1  0  0  0  0
  2  3  1  0  0  0  0
  3  4  1  0  0  0  0
  3 15  1  0  0  0  0
  4  5  1  0  0  0  0
  4 16  1  0  0  0  0
  4 17  1  0  0  0  0
  5 14  2  0  0  0  0
  5  6  1  0  0  0  0
  6  7  2  0  0  0  0
  6 18  1  0  0  0  0
  7  8  1  0  0  0  0
  7 19  1  0  0  0  0
  8  9  2  0  0  0  0
  8 20  1  0  0  0  0
  9 14  1  0  0  0  0
  9 10  1  0  0  0  0
 10 11  2  0  0  0  0
 10 21  1  0  0  0  0
 11 12  1  0  0  0  0
 11 22  1  0  0  0  0
 12 13  2  0  0  0  0
 12 23  1  0  0  0  0
 13 14  1  0  0  0  0
M  END
$$$$
