ZINC000000020237      none
 OpenBabel11202420153D

 39 39  0  0  0  0  0  0  0  0999 V2000
   30.1558   37.9128   64.6106 C   0  0  0  0  0  0  0  0  0  0  0  0
   31.5828   37.9240   64.0589 C   0  0  0  0  0  0  0  0  0  0  0  0
   31.5824   37.3920   62.6896 N   0  0  0  0  0  0  0  0  0  0  0  0
   31.0769   36.0130   62.6606 C   0  0  0  0  0  0  0  0  0  0  0  0
   31.9676   35.1249   63.5317 C   0  0  0  0  0  0  0  0  0  0  0  0
   30.8071   38.2560   61.7893 C   0  0  0  0  0  0  0  0  0  0  0  0
   31.2130   37.9881   60.3629 C   0  0  0  0  0  0  0  0  0  0  0  0
   30.3901   37.5998   59.5610 O   0  0  0  0  0  0  0  0  0  0  0  0
   32.4905   38.1800   59.9785 N   0  0  0  0  0  0  0  0  0  0  0  0
   32.8674   37.9311   58.6542 C   0  0  0  0  0  0  0  0  0  0  0  0
   32.7087   36.6624   58.1121 C   0  0  0  0  0  0  0  0  0  0  0  0
   32.1299   35.5513   58.9499 C   0  0  0  0  0  0  0  0  0  0  0  0
   33.0857   36.4189   56.8061 C   0  0  0  0  0  0  0  0  0  0  0  0
   33.6115   37.4393   56.0350 C   0  0  0  0  0  0  0  0  0  0  0  0
   33.7670   38.7048   56.5703 C   0  0  0  0  0  0  0  0  0  0  0  0
   33.3962   38.9536   57.8773 C   0  0  0  0  0  0  0  0  0  0  0  0
   33.5650   40.3332   58.4597 C   0  0  0  0  0  0  0  0  0  0  0  0
   30.1382   38.4053   65.5828 H   0  0  0  0  0  0  0  0  0  0  0  0
   29.4963   38.4425   63.9232 H   0  0  0  0  0  0  0  0  0  0  0  0
   29.8161   36.8827   64.7190 H   0  0  0  0  0  0  0  0  0  0  0  0
   32.2209   37.3044   64.6892 H   0  0  0  0  0  0  0  0  0  0  0  0
   31.9615   38.9460   64.0516 H   0  0  0  0  0  0  0  0  0  0  0  0
   30.0568   35.9920   63.0440 H   0  0  0  0  0  0  0  0  0  0  0  0
   31.0874   35.6438   61.6351 H   0  0  0  0  0  0  0  0  0  0  0  0
   31.6539   34.0859   63.4312 H   0  0  0  0  0  0  0  0  0  0  0  0
   33.0045   35.2239   63.2106 H   0  0  0  0  0  0  0  0  0  0  0  0
   31.8790   35.4320   64.5737 H   0  0  0  0  0  0  0  0  0  0  0  0
   31.0010   39.3007   62.0323 H   0  0  0  0  0  0  0  0  0  0  0  0
   29.7444   38.0461   61.9102 H   0  0  0  0  0  0  0  0  0  0  0  0
   33.1486   38.4906   60.6198 H   0  0  0  0  0  0  0  0  0  0  0  0
   32.9391   34.9567   59.3740 H   0  0  0  0  0  0  0  0  0  0  0  0
   31.5314   35.9773   59.7551 H   0  0  0  0  0  0  0  0  0  0  0  0
   31.5006   34.9162   58.3263 H   0  0  0  0  0  0  0  0  0  0  0  0
   32.9656   35.4317   56.3850 H   0  0  0  0  0  0  0  0  0  0  0  0
   33.9019   37.2474   55.0126 H   0  0  0  0  0  0  0  0  0  0  0  0
   34.1783   39.4995   55.9657 H   0  0  0  0  0  0  0  0  0  0  0  0
   32.6599   40.9148   58.2844 H   0  0  0  0  0  0  0  0  0  0  0  0
   33.7450   40.2556   59.5319 H   0  0  0  0  0  0  0  0  0  0  0  0
   34.4121   40.8273   57.9838 H   0  0  0  0  0  0  0  0  0  0  0  0
  1  2  1  0  0  0  0
  1 18  1  0  0  0  0
  1 19  1  0  0  0  0
  1 20  1  0  0  0  0
  2  3  1  0  0  0  0
  2 21  1  0  0  0  0
  2 22  1  0  0  0  0
  3  4  1  0  0  0  0
  3  6  1  0  0  0  0
  4  5  1  0  0  0  0
  4 23  1  0  0  0  0
  4 24  1  0  0  0  0
  5 25  1  0  0  0  0
  5 26  1  0  0  0  0
  5 27  1  0  0  0  0
  6  7  1  0  0  0  0
  6 28  1  0  0  0  0
  6 29  1  0  0  0  0
  7  8  2  0  0  0  0
  7  9  1  0  0  0  0
  9 10  1  0  0  0  0
  9 30  1  0  0  0  0
 10 16  2  0  0  0  0
 10 11  1  0  0  0  0
 11 12  1  0  0  0  0
 11 13  2  0  0  0  0
 12 31  1  0  0  0  0
 12 32  1  0  0  0  0
 12 33  1  0  0  0  0
 13 14  1  0  0  0  0
 13 34  1  0  0  0  0
 14 15  2  0  0  0  0
 14 35  1  0  0  0  0
 15 16  1  0  0  0  0
 15 36  1  0  0  0  0
 16 17  1  0  0  0  0
 17 37  1  0  0  0  0
 17 38  1  0  0  0  0
 17 39  1  0  0  0  0
M  END
$$$$
