ZINC000000045388      none
 OpenBabel11202420153D

 35 35  0  0  0  0  0  0  0  0999 V2000
   32.6311   35.7468   53.6132 C   0  0  0  0  0  0  0  0  0  0  0  0
   33.6176   36.2033   54.6571 C   0  0  0  0  0  0  0  0  0  0  0  0
   34.7270   36.5646   54.3261 O   0  0  0  0  0  0  0  0  0  0  0  0
   33.2354   36.2105   56.0756 C   0  0  0  0  0  0  0  0  0  0  0  0
   32.8485   35.0210   56.7051 C   0  0  0  0  0  0  0  0  0  0  0  0
   32.4956   35.0325   58.0351 C   0  0  0  0  0  0  0  0  0  0  0  0
   32.0841   33.7523   58.7152 C   0  0  0  0  0  0  0  0  0  0  0  0
   33.0340   33.4652   59.8797 C   0  0  0  0  0  0  0  0  0  0  0  0
   30.6556   33.8927   59.2451 C   0  0  0  0  0  0  0  0  0  0  0  0
   32.5131   36.2244   58.7513 C   0  0  0  0  0  0  0  0  0  0  0  0
   32.1596   36.2311   60.0617 O   0  0  0  0  0  0  0  0  0  0  0  0
   31.1130   36.9988   60.4070 C   0  0  0  0  0  0  0  0  0  0  0  0
   30.2241   37.2004   59.6140 O   0  0  0  0  0  0  0  0  0  0  0  0
   31.0475   37.6086   61.7835 C   0  0  0  0  0  0  0  0  0  0  0  0
   32.1809   37.2350   62.5136 F   0  0  0  0  0  0  0  0  0  0  0  0
   31.0017   39.0026   61.6744 F   0  0  0  0  0  0  0  0  0  0  0  0
   29.8989   37.1544   62.4405 F   0  0  0  0  0  0  0  0  0  0  0  0
   32.8918   37.4090   58.1299 C   0  0  0  0  0  0  0  0  0  0  0  0
   33.2513   37.4076   56.8012 C   0  0  0  0  0  0  0  0  0  0  0  0
   33.6615   38.6924   56.1289 C   0  0  0  0  0  0  0  0  0  0  0  0
   32.7364   34.6729   53.4589 H   0  0  0  0  0  0  0  0  0  0  0  0
   32.8255   36.2692   52.6765 H   0  0  0  0  0  0  0  0  0  0  0  0
   31.6181   35.9681   53.9493 H   0  0  0  0  0  0  0  0  0  0  0  0
   32.8307   34.0956   56.1487 H   0  0  0  0  0  0  0  0  0  0  0  0
   32.1273   32.9308   58.0001 H   0  0  0  0  0  0  0  0  0  0  0  0
   32.9908   34.2867   60.5948 H   0  0  0  0  0  0  0  0  0  0  0  0
   32.7364   32.5393   60.3716 H   0  0  0  0  0  0  0  0  0  0  0  0
   34.0517   33.3653   59.5023 H   0  0  0  0  0  0  0  0  0  0  0  0
   30.3579   32.9666   59.7370 H   0  0  0  0  0  0  0  0  0  0  0  0
   30.6124   34.7142   59.9602 H   0  0  0  0  0  0  0  0  0  0  0  0
   29.9789   34.0971   58.4155 H   0  0  0  0  0  0  0  0  0  0  0  0
   32.9037   38.3320   58.6907 H   0  0  0  0  0  0  0  0  0  0  0  0
   32.8089   39.1114   55.5947 H   0  0  0  0  0  0  0  0  0  0  0  0
   34.0037   39.4030   56.8813 H   0  0  0  0  0  0  0  0  0  0  0  0
   34.4688   38.4921   55.4244 H   0  0  0  0  0  0  0  0  0  0  0  0
  1  2  1  0  0  0  0
  1 21  1  0  0  0  0
  1 22  1  0  0  0  0
  1 23  1  0  0  0  0
  2  3  2  0  0  0  0
  2  4  1  0  0  0  0
  4 19  2  0  0  0  0
  4  5  1  0  0  0  0
  5  6  2  0  0  0  0
  5 24  1  0  0  0  0
  6  7  1  0  0  0  0
  6 10  1  0  0  0  0
  7  8  1  0  0  0  0
  7  9  1  0  0  0  0
  7 25  1  0  0  0  0
  8 26  1  0  0  0  0
  8 27  1  0  0  0  0
  8 28  1  0  0  0  0
  9 29  1  0  0  0  0
  9 30  1  0  0  0  0
  9 31  1  0  0  0  0
 10 11  1  0  0  0  0
 10 18  2  0  0  0  0
 11 12  1  0  0  0  0
 12 13  2  0  0  0  0
 12 14  1  0  0  0  0
 14 15  1  0  0  0  0
 14 16  1  0  0  0  0
 14 17  1  0  0  0  0
 18 19  1  0  0  0  0
 18 32  1  0  0  0  0
 19 20  1  0  0  0  0
 20 33  1  0  0  0  0
 20 34  1  0  0  0  0
 20 35  1  0  0  0  0
M  END
$$$$
