ZINC000000035620      none
 OpenBabel11202420153D

 31 32  0  0  0  0  0  0  0  0999 V2000
   30.3226   36.3467   62.6760 N   0  0  0  0  0  0  0  0  0  0  0  0
   31.1504   37.7144   62.2443 S   0  0  0  0  0  0  0  0  0  0  0  0
   32.2758   37.7919   63.1085 O   0  0  0  0  0  0  0  0  0  0  0  0
   30.1838   38.7499   62.1321 O   0  0  0  0  0  0  0  0  0  0  0  0
   31.7860   37.4492   60.6225 C   0  0  0  0  0  0  0  0  0  0  0  0
   32.5285   38.4373   60.0023 C   0  0  0  0  0  0  0  0  0  0  0  0
   33.0284   38.2325   58.7313 C   0  0  0  0  0  0  0  0  0  0  0  0
   32.7795   37.0348   58.0735 C   0  0  0  0  0  0  0  0  0  0  0  0
   33.2790   36.8266   56.7840 N   0  0  0  0  0  0  0  0  0  0  0  0
   33.4495   37.8720   55.9504 C   0  0  0  0  0  0  0  0  0  0  0  0
   33.1689   38.9956   56.3194 O   0  0  0  0  0  0  0  0  0  0  0  0
   33.9774   37.6518   54.5874 C   0  0  0  0  0  0  0  0  0  0  0  0
   33.7817   36.4255   53.9494 C   0  0  0  0  0  0  0  0  0  0  0  0
   34.2721   36.2271   52.6754 C   0  0  0  0  0  0  0  0  0  0  0  0
   34.9661   37.2364   52.0324 C   0  0  0  0  0  0  0  0  0  0  0  0
   35.1696   38.4543   52.6610 C   0  0  0  0  0  0  0  0  0  0  0  0
   35.8483   39.4355   52.0272 F   0  0  0  0  0  0  0  0  0  0  0  0
   34.6786   38.6670   53.9353 C   0  0  0  0  0  0  0  0  0  0  0  0
   32.0383   36.0422   58.7014 C   0  0  0  0  0  0  0  0  0  0  0  0
   31.5416   36.2532   59.9727 C   0  0  0  0  0  0  0  0  0  0  0  0
   30.2696   36.0860   63.6088 H   0  0  0  0  0  0  0  0  0  0  0  0
   29.8906   35.8062   61.9962 H   0  0  0  0  0  0  0  0  0  0  0  0
   32.7178   39.3701   60.5125 H   0  0  0  0  0  0  0  0  0  0  0  0
   33.6086   39.0045   58.2476 H   0  0  0  0  0  0  0  0  0  0  0  0
   33.5029   35.9299   56.4895 H   0  0  0  0  0  0  0  0  0  0  0  0
   33.2438   35.6347   54.4512 H   0  0  0  0  0  0  0  0  0  0  0  0
   34.1172   35.2798   52.1803 H   0  0  0  0  0  0  0  0  0  0  0  0
   35.3513   37.0743   51.0366 H   0  0  0  0  0  0  0  0  0  0  0  0
   34.8368   39.6164   54.4251 H   0  0  0  0  0  0  0  0  0  0  0  0
   31.8471   35.1079   58.1946 H   0  0  0  0  0  0  0  0  0  0  0  0
   30.9613   35.4835   60.4598 H   0  0  0  0  0  0  0  0  0  0  0  0
  1  2  1  0  0  0  0
  1 21  1  0  0  0  0
  1 22  1  0  0  0  0
  2  3  2  0  0  0  0
  2  4  2  0  0  0  0
  2  5  1  0  0  0  0
  5 20  2  0  0  0  0
  5  6  1  0  0  0  0
  6  7  2  0  0  0  0
  6 23  1  0  0  0  0
  7  8  1  0  0  0  0
  7 24  1  0  0  0  0
  8  9  1  0  0  0  0
  8 19  2  0  0  0  0
  9 10  1  0  0  0  0
  9 25  1  0  0  0  0
 10 11  2  0  0  0  0
 10 12  1  0  0  0  0
 12 18  2  0  0  0  0
 12 13  1  0  0  0  0
 13 14  2  0  0  0  0
 13 26  1  0  0  0  0
 14 15  1  0  0  0  0
 14 27  1  0  0  0  0
 15 16  2  0  0  0  0
 15 28  1  0  0  0  0
 16 17  1  0  0  0  0
 16 18  1  0  0  0  0
 18 29  1  0  0  0  0
 19 20  1  0  0  0  0
 19 30  1  0  0  0  0
 20 31  1  0  0  0  0
M  END
$$$$
