ZINC000000033364      none
 OpenBabel11202420153D

 40 42  0  0  1  0  0  0  0  0999 V2000
   32.1619   36.5261   67.9251 C   0  0  0  0  0  0  0  0  0  0  0  0
   32.0696   37.8819   67.2736 C   0  0  0  0  0  0  0  0  0  0  0  0
   32.8563   38.7563   67.5772 O   0  0  0  0  0  0  0  0  0  0  0  0
   31.0724   38.1349   66.3140 C   0  0  0  0  0  0  0  0  0  0  0  0
   31.3243   37.8977   65.0132 C   0  0  0  0  0  0  0  0  0  0  0  0
   32.6782   37.3673   64.6174 C   0  0  0  0  0  0  0  0  0  0  0  0
   30.4102   38.1177   64.0594 O   0  0  0  0  0  0  0  0  0  0  0  0
   29.3613   38.9199   64.3119 C   0  0  0  0  0  0  0  0  0  0  0  0
   28.6545   39.4467   63.2597 N   0  0  0  0  0  0  0  0  0  0  0  0
   28.9833   39.2227   65.5789 C   0  0  0  0  0  0  0  0  0  0  0  0
   27.8558   40.0775   65.7998 C   0  0  0  0  0  0  0  0  0  0  0  0
   26.9614   40.7557   65.9749 N   0  0  0  0  0  0  0  0  0  0  0  0
   29.7388   38.6672   66.7512 C   0  0  2  0  0  0  0  0  0  0  0  0
   29.9198   39.7309   67.8119 C   0  0  0  0  0  0  0  0  0  0  0  0
   30.5093   40.7850   67.7008 O   0  0  0  0  0  0  0  0  0  0  0  0
   29.2879   39.2607   68.9070 N   0  0  0  0  0  0  0  0  0  0  0  0
   29.2119   39.9788   70.1816 C   0  0  0  0  0  0  0  0  0  0  0  0
   28.7198   38.0176   68.6820 C   0  0  0  0  0  0  0  0  0  0  0  0
   28.9385   37.5997   67.4446 C   0  0  0  0  0  0  0  0  0  0  0  0
   28.4548   36.2922   66.8836 C   0  0  0  0  0  0  0  0  0  0  0  0
   27.3965   35.7186   67.7822 C   0  0  0  0  0  0  0  0  0  0  0  0
   27.1788   36.1169   68.9934 C   0  0  0  0  0  0  0  0  0  0  0  0
   27.9408   37.2034   69.6907 C   0  0  0  0  0  0  0  0  0  0  0  0
   31.4433   35.8504   67.4611 H   0  0  0  0  0  0  0  0  0  0  0  0
   33.1688   36.1291   67.7970 H   0  0  0  0  0  0  0  0  0  0  0  0
   31.9399   36.6180   68.9884 H   0  0  0  0  0  0  0  0  0  0  0  0
   32.7138   37.2324   63.5364 H   0  0  0  0  0  0  0  0  0  0  0  0
   33.4489   38.0760   64.9207 H   0  0  0  0  0  0  0  0  0  0  0  0
   32.8513   36.4099   65.1089 H   0  0  0  0  0  0  0  0  0  0  0  0
   27.8956   40.0273   63.4273 H   0  0  0  0  0  0  0  0  0  0  0  0
   28.9138   39.2385   62.3485 H   0  0  0  0  0  0  0  0  0  0  0  0
   30.0628   39.7038   70.8048 H   0  0  0  0  0  0  0  0  0  0  0  0
   29.2298   41.0526   69.9955 H   0  0  0  0  0  0  0  0  0  0  0  0
   28.2864   39.7140   70.6931 H   0  0  0  0  0  0  0  0  0  0  0  0
   28.0373   36.4558   65.8902 H   0  0  0  0  0  0  0  0  0  0  0  0
   29.2903   35.5953   66.8154 H   0  0  0  0  0  0  0  0  0  0  0  0
   26.7784   34.9233   67.3923 H   0  0  0  0  0  0  0  0  0  0  0  0
   26.3882   35.6293   69.5444 H   0  0  0  0  0  0  0  0  0  0  0  0
   28.6311   36.7586   70.4073 H   0  0  0  0  0  0  0  0  0  0  0  0
   27.2414   37.8529   70.2173 H   0  0  0  0  0  0  0  0  0  0  0  0
  1  2  1  0  0  0  0
  1 24  1  0  0  0  0
  1 25  1  0  0  0  0
  1 26  1  0  0  0  0
  2  3  2  0  0  0  0
  2  4  1  0  0  0  0
  4  5  2  0  0  0  0
  5  6  1  0  0  0  0
  5  7  1  0  0  0  0
  6 27  1  0  0  0  0
  6 28  1  0  0  0  0
  6 29  1  0  0  0  0
  7  8  1  0  0  0  0
  8  9  1  0  0  0  0
  8 10  2  0  0  0  0
  9 30  1  0  0  0  0
  9 31  1  0  0  0  0
 10 11  1  0  0  0  0
 10 13  1  0  0  0  0
 11 12  3  0  0  0  0
 13  4  1  6  0  0  0
 13 19  1  0  0  0  0
 13 14  1  0  0  0  0
 14 15  2  0  0  0  0
 14 16  1  0  0  0  0
 16 17  1  0  0  0  0
 16 18  1  0  0  0  0
 17 32  1  0  0  0  0
 17 33  1  0  0  0  0
 17 34  1  0  0  0  0
 18 23  1  0  0  0  0
 18 19  2  0  0  0  0
 19 20  1  0  0  0  0
 20 21  1  0  0  0  0
 20 35  1  0  0  0  0
 20 36  1  0  0  0  0
 21 22  2  0  0  0  0
 21 37  1  0  0  0  0
 22 23  1  0  0  0  0
 22 38  1  0  0  0  0
 23 39  1  0  0  0  0
 23 40  1  0  0  0  0
M  END
$$$$
