ZINC000000028345      none
 OpenBabel11202420163D

 26 27  0  0  0  0  0  0  0  0999 V2000
   32.0120   38.2840   59.8592 S   0  0  0  0  0  0  0  0  0  0  0  0
   32.2428   36.6745   59.3231 C   0  0  0  0  0  0  0  0  0  0  0  0
   31.8626   35.6433   60.1033 N   0  0  0  0  0  0  0  0  0  0  0  0
   31.2747   35.8880   61.3477 C   0  0  0  0  0  0  0  0  0  0  0  0
   32.0676   35.9935   62.4834 C   0  0  0  0  0  0  0  0  0  0  0  0
   31.4839   36.2405   63.7105 C   0  0  0  0  0  0  0  0  0  0  0  0
   30.1110   36.3723   63.8110 C   0  0  0  0  0  0  0  0  0  0  0  0
   29.3183   36.2623   62.6832 C   0  0  0  0  0  0  0  0  0  0  0  0
   29.8959   36.0206   61.4522 C   0  0  0  0  0  0  0  0  0  0  0  0
   32.8580   36.4163   58.0065 C   0  0  0  0  0  0  0  0  0  0  0  0
   33.0530   35.1046   57.5686 C   0  0  0  0  0  0  0  0  0  0  0  0
   33.6230   34.8706   56.3343 C   0  0  0  0  0  0  0  0  0  0  0  0
   34.0123   35.9321   55.5360 C   0  0  0  0  0  0  0  0  0  0  0  0
   33.8274   37.2337   55.9664 C   0  0  0  0  0  0  0  0  0  0  0  0
   33.2531   37.4824   57.1955 C   0  0  0  0  0  0  0  0  0  0  0  0
   31.9933   34.7314   59.7995 H   0  0  0  0  0  0  0  0  0  0  0  0
   33.1394   35.8861   62.4064 H   0  0  0  0  0  0  0  0  0  0  0  0
   32.1002   36.3266   64.5933 H   0  0  0  0  0  0  0  0  0  0  0  0
   29.6568   36.5614   64.7724 H   0  0  0  0  0  0  0  0  0  0  0  0
   28.2464   36.3658   62.7651 H   0  0  0  0  0  0  0  0  0  0  0  0
   29.2763   35.9344   60.5719 H   0  0  0  0  0  0  0  0  0  0  0  0
   32.7539   34.2755   58.1925 H   0  0  0  0  0  0  0  0  0  0  0  0
   33.7696   33.8568   55.9921 H   0  0  0  0  0  0  0  0  0  0  0  0
   34.4623   35.7431   54.5727 H   0  0  0  0  0  0  0  0  0  0  0  0
   34.1334   38.0572   55.3381 H   0  0  0  0  0  0  0  0  0  0  0  0
   33.1096   38.4992   57.5302 H   0  0  0  0  0  0  0  0  0  0  0  0
  1  2  2  0  0  0  0
  2  3  1  0  0  0  0
  2 10  1  0  0  0  0
  3  4  1  0  0  0  0
  3 16  1  0  0  0  0
  4  9  2  0  0  0  0
  4  5  1  0  0  0  0
  5  6  2  0  0  0  0
  5 17  1  0  0  0  0
  6  7  1  0  0  0  0
  6 18  1  0  0  0  0
  7  8  2  0  0  0  0
  7 19  1  0  0  0  0
  8  9  1  0  0  0  0
  8 20  1  0  0  0  0
  9 21  1  0  0  0  0
 10 15  2  0  0  0  0
 10 11  1  0  0  0  0
 11 12  2  0  0  0  0
 11 22  1  0  0  0  0
 12 13  1  0  0  0  0
 12 23  1  0  0  0  0
 13 14  2  0  0  0  0
 13 24  1  0  0  0  0
 14 15  1  0  0  0  0
 14 25  1  0  0  0  0
 15 26  1  0  0  0  0
M  END
$$$$
