ZINC000000024141      none
 OpenBabel11202420153D

 35 37  0  0  1  0  0  0  0  0999 V2000
   30.8412   36.1438   65.7919 C   0  0  0  0  0  0  0  0  0  0  0  0
   30.4097   36.0274   64.5384 C   0  0  0  0  0  0  0  0  0  0  0  0
   31.0029   36.6862   63.3100 C   0  0  0  0  0  0  0  0  0  0  0  0
   30.1095   36.2010   62.1563 C   0  0  1  0  0  0  0  0  0  0  0  0
   29.4385   37.3952   61.4747 C   0  0  0  0  0  0  0  0  0  0  0  0
   30.9427   35.4176   61.1399 C   0  0  0  0  0  0  0  0  0  0  0  0
   31.9701   36.2609   60.6149 O   0  0  0  0  0  0  0  0  0  0  0  0
   32.3797   36.0150   59.3443 C   0  0  0  0  0  0  0  0  0  0  0  0
   32.3188   34.7184   58.8372 C   0  0  0  0  0  0  0  0  0  0  0  0
   32.7268   34.4551   57.5619 C   0  0  0  0  0  0  0  0  0  0  0  0
   33.2098   35.4940   56.7578 C   0  0  0  0  0  0  0  0  0  0  0  0
   33.6535   35.2411   55.3854 C   0  0  0  0  0  0  0  0  0  0  0  0
   34.1110   36.2911   54.6550 C   0  0  0  0  0  0  0  0  0  0  0  0
   34.1476   37.5798   55.2263 C   0  0  0  0  0  0  0  0  0  0  0  0
   34.5602   38.5124   54.5605 O   0  0  0  0  0  0  0  0  0  0  0  0
   33.7389   37.8049   56.4848 O   0  0  0  0  0  0  0  0  0  0  0  0
   33.2737   36.8054   57.2643 C   0  0  0  0  0  0  0  0  0  0  0  0
   32.8495   37.0561   58.5607 C   0  0  0  0  0  0  0  0  0  0  0  0
   29.1056   35.3372   62.7476 O   0  0  0  0  0  0  0  0  0  0  0  0
   29.2648   35.2347   64.0727 C   0  0  0  0  0  0  0  0  0  0  0  0
   28.5522   34.5695   64.7986 O   0  0  0  0  0  0  0  0  0  0  0  0
   31.7004   36.7598   66.0122 H   0  0  0  0  0  0  0  0  0  0  0  0
   30.3323   35.6220   66.5888 H   0  0  0  0  0  0  0  0  0  0  0  0
   32.0317   36.3583   63.1600 H   0  0  0  0  0  0  0  0  0  0  0  0
   30.9580   37.7718   63.3971 H   0  0  0  0  0  0  0  0  0  0  0  0
   28.8474   37.9461   62.2064 H   0  0  0  0  0  0  0  0  0  0  0  0
   30.2020   38.0509   61.0563 H   0  0  0  0  0  0  0  0  0  0  0  0
   28.7878   37.0391   60.6760 H   0  0  0  0  0  0  0  0  0  0  0  0
   31.3955   34.5551   61.6292 H   0  0  0  0  0  0  0  0  0  0  0  0
   30.3001   35.0787   60.3274 H   0  0  0  0  0  0  0  0  0  0  0  0
   31.9465   33.9166   59.4577 H   0  0  0  0  0  0  0  0  0  0  0  0
   32.6770   33.4483   57.1742 H   0  0  0  0  0  0  0  0  0  0  0  0
   33.6183   34.2467   54.9654 H   0  0  0  0  0  0  0  0  0  0  0  0
   34.4463   36.1392   53.6397 H   0  0  0  0  0  0  0  0  0  0  0  0
   32.8892   38.0590   58.9592 H   0  0  0  0  0  0  0  0  0  0  0  0
  1  2  2  0  0  0  0
  1 22  1  0  0  0  0
  1 23  1  0  0  0  0
  2 20  1  0  0  0  0
  2  3  1  0  0  0  0
  3  4  1  0  0  0  0
  3 24  1  0  0  0  0
  3 25  1  0  0  0  0
  4  5  1  6  0  0  0
  4  6  1  0  0  0  0
  4 19  1  0  0  0  0
  5 26  1  0  0  0  0
  5 27  1  0  0  0  0
  5 28  1  0  0  0  0
  6  7  1  0  0  0  0
  6 29  1  0  0  0  0
  6 30  1  0  0  0  0
  7  8  1  0  0  0  0
  8 18  2  0  0  0  0
  8  9  1  0  0  0  0
  9 10  2  0  0  0  0
  9 31  1  0  0  0  0
 10 11  1  0  0  0  0
 10 32  1  0  0  0  0
 11 17  2  0  0  0  0
 11 12  1  0  0  0  0
 12 13  2  0  0  0  0
 12 33  1  0  0  0  0
 13 14  1  0  0  0  0
 13 34  1  0  0  0  0
 14 15  2  0  0  0  0
 14 16  1  0  0  0  0
 16 17  1  0  0  0  0
 17 18  1  0  0  0  0
 18 35  1  0  0  0  0
 19 20  1  0  0  0  0
 20 21  2  0  0  0  0
M  END
$$$$
