ZINC000000045106      none
 OpenBabel11202420153D

 46 49  0  0  0  0  0  0  0  0999 V2000
   32.5263   38.2941   67.3963 C   0  0  0  0  0  0  0  0  0  0  0  0
   31.8718   36.9579   67.6350 C   0  0  0  0  0  0  0  0  0  0  0  0
   32.4666   36.0491   68.4873 C   0  0  0  0  0  0  0  0  0  0  0  0
   31.8723   34.8156   68.7147 C   0  0  0  0  0  0  0  0  0  0  0  0
   32.4454   33.9189   69.5464 O   0  0  0  0  0  0  0  0  0  0  0  0
   31.8934   32.7190   69.7856 C   0  0  0  0  0  0  0  0  0  0  0  0
   32.4546   31.9497   70.5457 O   0  0  0  0  0  0  0  0  0  0  0  0
   30.6862   32.3254   69.1833 C   0  0  0  0  0  0  0  0  0  0  0  0
   30.0427   33.1919   68.3197 C   0  0  0  0  0  0  0  0  0  0  0  0
   28.7700   32.8136   67.6666 C   0  0  0  0  0  0  0  0  0  0  0  0
   28.7819   32.1718   66.4273 C   0  0  0  0  0  0  0  0  0  0  0  0
   27.5920   31.8180   65.8258 C   0  0  0  0  0  0  0  0  0  0  0  0
   26.3882   32.1069   66.4437 C   0  0  0  0  0  0  0  0  0  0  0  0
   26.3693   32.7472   67.6701 C   0  0  0  0  0  0  0  0  0  0  0  0
   27.5525   33.1022   68.2846 C   0  0  0  0  0  0  0  0  0  0  0  0
   30.6640   34.5026   68.0710 C   0  0  0  0  0  0  0  0  0  0  0  0
   30.0662   35.4335   67.2115 C   0  0  0  0  0  0  0  0  0  0  0  0
   28.8959   35.1384   66.5907 O   0  5  0  0  0  0  0  0  0  0  0  0
   30.6809   36.6553   66.9970 C   0  0  0  0  0  0  0  0  0  0  0  0
   30.0483   37.6618   66.0707 C   0  0  0  0  0  0  0  0  0  0  0  0
   30.5490   37.4531   64.7056 N   0  3  0  0  0  0  0  0  0  0  0  0
   31.5352   37.2405   64.7249 H   0  0  0  0  0  0  0  0  0  0  0  0
   29.7992   36.3528   64.0475 C   0  0  0  0  0  0  0  0  0  0  0  0
   30.0169   36.6284   62.5385 C   0  0  0  0  0  0  0  0  0  0  0  0
   29.9730   38.1717   62.4590 C   0  0  0  0  0  0  0  0  0  0  0  0
   30.3031   38.6573   63.8825 C   0  0  0  0  0  0  0  0  0  0  0  0
   32.1602   39.0141   68.1283 H   0  0  0  0  0  0  0  0  0  0  0  0
   33.6070   38.1924   67.4961 H   0  0  0  0  0  0  0  0  0  0  0  0
   32.2854   38.6425   66.3920 H   0  0  0  0  0  0  0  0  0  0  0  0
   33.3959   36.2984   68.9780 H   0  0  0  0  0  0  0  0  0  0  0  0
   30.2645   31.3537   69.3938 H   0  0  0  0  0  0  0  0  0  0  0  0
   29.7208   31.9499   65.9419 H   0  0  0  0  0  0  0  0  0  0  0  0
   27.5999   31.3180   64.8685 H   0  0  0  0  0  0  0  0  0  0  0  0
   25.4591   31.8318   65.9665 H   0  0  0  0  0  0  0  0  0  0  0  0
   25.4264   32.9700   68.1474 H   0  0  0  0  0  0  0  0  0  0  0  0
   27.5364   33.6025   69.2415 H   0  0  0  0  0  0  0  0  0  0  0  0
   28.9657   37.5372   66.0835 H   0  0  0  0  0  0  0  0  0  0  0  0
   30.3021   38.6691   66.4008 H   0  0  0  0  0  0  0  0  0  0  0  0
   30.2145   35.3841   64.3255 H   0  0  0  0  0  0  0  0  0  0  0  0
   28.7399   36.4048   64.2992 H   0  0  0  0  0  0  0  0  0  0  0  0
   29.2142   36.1887   61.9464 H   0  0  0  0  0  0  0  0  0  0  0  0
   30.9862   36.2527   62.2108 H   0  0  0  0  0  0  0  0  0  0  0  0
   28.9782   38.5072   62.1659 H   0  0  0  0  0  0  0  0  0  0  0  0
   30.7182   38.5369   61.7523 H   0  0  0  0  0  0  0  0  0  0  0  0
   29.4612   39.2185   64.2880 H   0  0  0  0  0  0  0  0  0  0  0  0
   31.1942   39.2846   63.8668 H   0  0  0  0  0  0  0  0  0  0  0  0
  1  2  1  0  0  0  0
  1 27  1  0  0  0  0
  1 28  1  0  0  0  0
  1 29  1  0  0  0  0
  2 19  2  0  0  0  0
  2  3  1  0  0  0  0
  3  4  2  0  0  0  0
  3 30  1  0  0  0  0
  4 16  1  0  0  0  0
  4  5  1  0  0  0  0
  5  6  1  0  0  0  0
  6  7  2  0  0  0  0
  6  8  1  0  0  0  0
  8  9  2  0  0  0  0
  8 31  1  0  0  0  0
  9 10  1  0  0  0  0
  9 16  1  0  0  0  0
 10 15  2  0  0  0  0
 10 11  1  0  0  0  0
 11 12  2  0  0  0  0
 11 32  1  0  0  0  0
 12 13  1  0  0  0  0
 12 33  1  0  0  0  0
 13 14  2  0  0  0  0
 13 34  1  0  0  0  0
 14 15  1  0  0  0  0
 14 35  1  0  0  0  0
 15 36  1  0  0  0  0
 16 17  2  0  0  0  0
 17 18  1  0  0  0  0
 17 19  1  0  0  0  0
 19 20  1  0  0  0  0
 20 21  1  0  0  0  0
 20 37  1  0  0  0  0
 20 38  1  0  0  0  0
 21 22  1  0  0  0  0
 21 26  1  0  0  0  0
 21 23  1  0  0  0  0
 23 24  1  0  0  0  0
 23 39  1  0  0  0  0
 23 40  1  0  0  0  0
 24 25  1  0  0  0  0
 24 41  1  0  0  0  0
 24 42  1  0  0  0  0
 25 26  1  0  0  0  0
 25 43  1  0  0  0  0
 25 44  1  0  0  0  0
 26 45  1  0  0  0  0
 26 46  1  0  0  0  0
M  CHG  2  18  -1  21   1
M  END
$$$$
