ZINC000000039948      none
 OpenBabel11202420153D

 21 23  0  0  0  0  0  0  0  0999 V2000
   32.6495   34.7964   57.6323 O   0  0  0  0  0  0  0  0  0  0  0  0
   32.6679   35.8860   58.1685 C   0  0  0  0  0  0  0  0  0  0  0  0
   33.0355   37.1613   57.5184 C   0  0  0  0  0  0  0  0  0  0  0  0
   33.4355   37.5159   56.2400 C   0  0  0  0  0  0  0  0  0  0  0  0
   33.7201   38.8416   55.9520 C   0  0  0  0  0  0  0  0  0  0  0  0
   33.6066   39.8114   56.9304 C   0  0  0  0  0  0  0  0  0  0  0  0
   33.2072   39.4716   58.2135 C   0  0  0  0  0  0  0  0  0  0  0  0
   32.9199   38.1504   58.5165 C   0  0  0  0  0  0  0  0  0  0  0  0
   32.4808   37.4431   59.7375 C   0  0  0  0  0  0  0  0  0  0  0  0
   32.2698   37.9572   60.8174 O   0  0  0  0  0  0  0  0  0  0  0  0
   32.3544   36.1343   59.4529 N   0  0  0  0  0  0  0  0  0  0  0  0
   31.9570   35.1629   60.3696 C   0  0  0  0  0  0  0  0  0  0  0  0
   31.6494   35.3763   61.6129 N   0  0  0  0  0  0  0  0  0  0  0  0
   31.3079   34.3817   62.3116 N   0  0  0  0  0  0  0  0  0  0  0  0
   31.2970   33.2315   61.7158 C   0  0  0  0  0  0  0  0  0  0  0  0
   31.7932   33.4892   60.0428 S   0  0  0  0  0  0  0  0  0  0  0  0
   33.5251   36.7626   55.4712 H   0  0  0  0  0  0  0  0  0  0  0  0
   34.0323   39.1188   54.9559 H   0  0  0  0  0  0  0  0  0  0  0  0
   33.8312   40.8409   56.6937 H   0  0  0  0  0  0  0  0  0  0  0  0
   33.1207   40.2334   58.9742 H   0  0  0  0  0  0  0  0  0  0  0  0
   31.0313   32.2850   62.1629 H   0  0  0  0  0  0  0  0  0  0  0  0
  1  2  2  0  0  0  0
  2 11  1  0  0  0  0
  2  3  1  0  0  0  0
  3  8  2  0  0  0  0
  3  4  1  0  0  0  0
  4  5  2  0  0  0  0
  4 17  1  0  0  0  0
  5  6  1  0  0  0  0
  5 18  1  0  0  0  0
  6  7  2  0  0  0  0
  6 19  1  0  0  0  0
  7  8  1  0  0  0  0
  7 20  1  0  0  0  0
  8  9  1  0  0  0  0
  9 10  2  0  0  0  0
  9 11  1  0  0  0  0
 11 12  1  0  0  0  0
 12 16  1  0  0  0  0
 12 13  2  0  0  0  0
 13 14  1  0  0  0  0
 14 15  2  0  0  0  0
 15 16  1  0  0  0  0
 15 21  1  0  0  0  0
M  END
$$$$
