ZINC000000008787      none
 OpenBabel11202420153D

 29 32  0  0  1  0  0  0  0  0999 V2000
   31.7506   33.9126   58.9038 O   0  0  0  0  0  0  0  0  0  0  0  0
   32.3717   34.5824   58.1020 C   0  0  0  0  0  0  0  0  0  0  0  0
   32.9207   34.0130   57.0085 N   0  0  0  0  0  0  0  0  0  0  0  0
   33.6754   34.8080   56.0415 C   0  0  0  0  0  0  0  0  0  0  0  0
   33.0312   36.1832   55.8517 C   0  0  2  0  0  0  0  0  0  0  0  0
   32.0649   36.0872   55.3568 H   0  0  0  0  0  0  0  0  0  0  0  0
   33.9458   37.0500   55.0207 C   0  0  0  0  0  0  0  0  0  0  0  0
   34.7050   36.4890   54.0131 C   0  0  0  0  0  0  0  0  0  0  0  0
   35.5352   37.2865   53.2469 C   0  0  0  0  0  0  0  0  0  0  0  0
   35.6073   38.6462   53.4888 C   0  0  0  0  0  0  0  0  0  0  0  0
   34.8519   39.2113   54.4977 C   0  0  0  0  0  0  0  0  0  0  0  0
   34.0188   38.4135   55.2692 C   0  0  0  0  0  0  0  0  0  0  0  0
   33.2774   38.9686   56.2646 O   0  0  0  0  0  0  0  0  0  0  0  0
   32.9950   38.1997   57.3493 C   0  0  0  0  0  0  0  0  0  0  0  0
   32.8439   38.7752   58.6042 C   0  0  0  0  0  0  0  0  0  0  0  0
   32.5401   37.9884   59.7004 C   0  0  0  0  0  0  0  0  0  0  0  0
   32.3923   36.6212   59.5607 C   0  0  0  0  0  0  0  0  0  0  0  0
   32.5414   36.0381   58.3059 C   0  0  0  0  0  0  0  0  0  0  0  0
   32.8500   36.8331   57.2011 C   0  0  0  0  0  0  0  0  0  0  0  0
   32.8125   33.0604   56.8617 H   0  0  0  0  0  0  0  0  0  0  0  0
   33.6953   34.2858   55.0850 H   0  0  0  0  0  0  0  0  0  0  0  0
   34.6960   34.9363   56.4018 H   0  0  0  0  0  0  0  0  0  0  0  0
   34.6502   35.4273   53.8231 H   0  0  0  0  0  0  0  0  0  0  0  0
   36.1282   36.8467   52.4588 H   0  0  0  0  0  0  0  0  0  0  0  0
   36.2555   39.2670   52.8881 H   0  0  0  0  0  0  0  0  0  0  0  0
   34.9097   40.2732   54.6860 H   0  0  0  0  0  0  0  0  0  0  0  0
   32.9592   39.8423   58.7238 H   0  0  0  0  0  0  0  0  0  0  0  0
   32.4220   38.4445   60.6722 H   0  0  0  0  0  0  0  0  0  0  0  0
   32.1581   36.0095   60.4194 H   0  0  0  0  0  0  0  0  0  0  0  0
  1  2  2  0  0  0  0
  2 18  1  0  0  0  0
  2  3  1  0  0  0  0
  3  4  1  0  0  0  0
  3 20  1  0  0  0  0
  4  5  1  0  0  0  0
  4 21  1  0  0  0  0
  4 22  1  0  0  0  0
  5  6  1  6  0  0  0
  5 19  1  0  0  0  0
  5  7  1  0  0  0  0
  7 12  2  0  0  0  0
  7  8  1  0  0  0  0
  8  9  2  0  0  0  0
  8 23  1  0  0  0  0
  9 10  1  0  0  0  0
  9 24  1  0  0  0  0
 10 11  2  0  0  0  0
 10 25  1  0  0  0  0
 11 12  1  0  0  0  0
 11 26  1  0  0  0  0
 12 13  1  0  0  0  0
 13 14  1  0  0  0  0
 14 19  2  0  0  0  0
 14 15  1  0  0  0  0
 15 16  2  0  0  0  0
 15 27  1  0  0  0  0
 16 17  1  0  0  0  0
 16 28  1  0  0  0  0
 17 18  2  0  0  0  0
 17 29  1  0  0  0  0
 18 19  1  0  0  0  0
M  END
$$$$
