ZINC000000030413      none
 OpenBabel11202420163D

 42 44  0  0  0  0  0  0  0  0999 V2000
   30.3445   34.4629   67.0022 C   0  0  0  0  0  0  0  0  0  0  0  0
   31.4339   35.0618   66.2977 O   0  0  0  0  0  0  0  0  0  0  0  0
   31.5321   36.4139   66.3496 C   0  0  0  0  0  0  0  0  0  0  0  0
   32.2654   37.0206   67.3587 C   0  0  0  0  0  0  0  0  0  0  0  0
   32.3644   38.3966   67.4111 C   0  0  0  0  0  0  0  0  0  0  0  0
   31.7337   39.1818   66.4584 C   0  0  0  0  0  0  0  0  0  0  0  0
   31.8671   40.9108   66.5372 Cl  0  0  0  0  0  0  0  0  0  0  0  0
   31.0050   38.5947   65.4454 C   0  0  0  0  0  0  0  0  0  0  0  0
   30.8929   37.2034   65.3845 C   0  0  0  0  0  0  0  0  0  0  0  0
   30.1107   36.5689   64.3065 C   0  0  0  0  0  0  0  0  0  0  0  0
   28.9259   36.3463   64.4654 O   0  0  0  0  0  0  0  0  0  0  0  0
   30.7092   36.2361   63.1457 N   0  0  0  0  0  0  0  0  0  0  0  0
   29.9492   35.5972   62.0606 C   0  0  0  0  0  0  0  0  0  0  0  0
   30.2028   36.3754   60.7651 C   0  0  0  0  0  0  0  0  0  0  0  0
   31.6499   36.4770   60.5338 N   0  0  0  0  0  0  0  0  0  0  0  0
   31.9188   37.0357   59.2822 C   0  0  0  0  0  0  0  0  0  0  0  0
   31.4642   38.3124   58.9776 C   0  0  0  0  0  0  0  0  0  0  0  0
   31.7358   38.8637   57.7409 C   0  0  0  0  0  0  0  0  0  0  0  0
   32.4506   38.1421   56.8025 C   0  0  0  0  0  0  0  0  0  0  0  0
   32.9001   36.8688   57.1005 C   0  0  0  0  0  0  0  0  0  0  0  0
   32.6364   36.3135   58.3372 C   0  0  0  0  0  0  0  0  0  0  0  0
   32.3082   37.2393   61.6031 C   0  0  0  0  0  0  0  0  0  0  0  0
   32.1410   36.4964   62.9329 C   0  0  0  0  0  0  0  0  0  0  0  0
   30.3832   33.3806   66.8789 H   0  0  0  0  0  0  0  0  0  0  0  0
   30.4163   34.7107   68.0611 H   0  0  0  0  0  0  0  0  0  0  0  0
   29.4027   34.8404   66.6038 H   0  0  0  0  0  0  0  0  0  0  0  0
   32.7599   36.4156   68.1043 H   0  0  0  0  0  0  0  0  0  0  0  0
   32.9369   38.8640   68.1986 H   0  0  0  0  0  0  0  0  0  0  0  0
   30.5185   39.2096   64.7028 H   0  0  0  0  0  0  0  0  0  0  0  0
   30.2809   34.5661   61.9390 H   0  0  0  0  0  0  0  0  0  0  0  0
   28.8855   35.6171   62.2975 H   0  0  0  0  0  0  0  0  0  0  0  0
   29.7774   37.3753   60.8523 H   0  0  0  0  0  0  0  0  0  0  0  0
   29.7366   35.8530   59.9297 H   0  0  0  0  0  0  0  0  0  0  0  0
   30.9020   38.8748   59.7085 H   0  0  0  0  0  0  0  0  0  0  0  0
   31.3862   39.8579   57.5050 H   0  0  0  0  0  0  0  0  0  0  0  0
   32.6585   38.5741   55.8348 H   0  0  0  0  0  0  0  0  0  0  0  0
   33.4584   36.3081   56.3654 H   0  0  0  0  0  0  0  0  0  0  0  0
   32.9876   35.3189   58.5692 H   0  0  0  0  0  0  0  0  0  0  0  0
   31.8535   38.2271   61.6786 H   0  0  0  0  0  0  0  0  0  0  0  0
   33.3691   37.3433   61.3755 H   0  0  0  0  0  0  0  0  0  0  0  0
   32.5263   37.1109   63.7466 H   0  0  0  0  0  0  0  0  0  0  0  0
   32.6833   35.5517   62.8953 H   0  0  0  0  0  0  0  0  0  0  0  0
  1  2  1  0  0  0  0
  1 24  1  0  0  0  0
  1 25  1  0  0  0  0
  1 26  1  0  0  0  0
  2  3  1  0  0  0  0
  3  9  2  0  0  0  0
  3  4  1  0  0  0  0
  4  5  2  0  0  0  0
  4 27  1  0  0  0  0
  5  6  1  0  0  0  0
  5 28  1  0  0  0  0
  6  7  1  0  0  0  0
  6  8  2  0  0  0  0
  8  9  1  0  0  0  0
  8 29  1  0  0  0  0
  9 10  1  0  0  0  0
 10 11  2  0  0  0  0
 10 12  1  0  0  0  0
 12 23  1  0  0  0  0
 12 13  1  0  0  0  0
 13 14  1  0  0  0  0
 13 30  1  0  0  0  0
 13 31  1  0  0  0  0
 14 15  1  0  0  0  0
 14 32  1  0  0  0  0
 14 33  1  0  0  0  0
 15 16  1  0  0  0  0
 15 22  1  0  0  0  0
 16 21  2  0  0  0  0
 16 17  1  0  0  0  0
 17 18  2  0  0  0  0
 17 34  1  0  0  0  0
 18 19  1  0  0  0  0
 18 35  1  0  0  0  0
 19 20  2  0  0  0  0
 19 36  1  0  0  0  0
 20 21  1  0  0  0  0
 20 37  1  0  0  0  0
 21 38  1  0  0  0  0
 22 23  1  0  0  0  0
 22 39  1  0  0  0  0
 22 40  1  0  0  0  0
 23 41  1  0  0  0  0
 23 42  1  0  0  0  0
M  END
$$$$
