ZINC000000028003      none
 OpenBabel11202420153D

 41 43  0  0  0  0  0  0  0  0999 V2000
   30.4282   33.8140   63.5583 C   0  0  0  0  0  0  0  0  0  0  0  0
   31.3878   34.8199   63.8890 O   0  0  0  0  0  0  0  0  0  0  0  0
   31.1359   36.0820   63.4493 C   0  0  0  0  0  0  0  0  0  0  0  0
   31.6022   36.4886   62.2124 C   0  0  0  0  0  0  0  0  0  0  0  0
   31.3428   37.7855   61.7614 C   0  0  0  0  0  0  0  0  0  0  0  0
   31.8387   38.2221   60.4442 C   0  0  0  0  0  0  0  0  0  0  0  0
   32.5174   37.4014   59.7013 N   0  0  0  0  0  0  0  0  0  0  0  0
   32.9888   37.8166   58.4490 N   0  0  0  0  0  0  0  0  0  0  0  0
   33.3546   39.1177   58.0614 N   0  0  0  0  0  0  0  0  0  0  0  0
   33.7293   39.0499   56.8302 N   0  0  0  0  0  0  0  0  0  0  0  0
   33.6442   37.8437   56.3988 N   0  0  0  0  0  0  0  0  0  0  0  0
   33.1924   37.0464   57.3429 C   0  0  0  0  0  0  0  0  0  0  0  0
   32.9716   35.6835   57.2353 N   0  0  0  0  0  0  0  0  0  0  0  0
   33.2288   35.0271   56.0286 C   0  0  0  0  0  0  0  0  0  0  0  0
   33.6248   33.6955   56.0309 C   0  0  0  0  0  0  0  0  0  0  0  0
   33.8739   33.0488   54.8364 C   0  0  0  0  0  0  0  0  0  0  0  0
   33.7394   33.7281   53.6395 C   0  0  0  0  0  0  0  0  0  0  0  0
   33.3501   35.0551   53.6337 C   0  0  0  0  0  0  0  0  0  0  0  0
   33.0947   35.7065   54.8242 C   0  0  0  0  0  0  0  0  0  0  0  0
   30.6172   38.6696   62.5645 C   0  0  0  0  0  0  0  0  0  0  0  0
   30.1483   38.2551   63.7976 C   0  0  0  0  0  0  0  0  0  0  0  0
   29.4372   39.1129   64.5775 O   0  0  0  0  0  0  0  0  0  0  0  0
   30.1780   39.9263   65.4894 C   0  0  0  0  0  0  0  0  0  0  0  0
   30.4083   36.9629   64.2443 C   0  0  0  0  0  0  0  0  0  0  0  0
   29.9507   36.5601   65.4598 O   0  0  0  0  0  0  0  0  0  0  0  0
   30.7495   32.8566   63.9683 H   0  0  0  0  0  0  0  0  0  0  0  0
   29.4598   34.0832   63.9800 H   0  0  0  0  0  0  0  0  0  0  0  0
   30.3433   33.7351   62.4745 H   0  0  0  0  0  0  0  0  0  0  0  0
   32.1665   35.8045   61.5959 H   0  0  0  0  0  0  0  0  0  0  0  0
   31.6375   39.2247   60.0967 H   0  0  0  0  0  0  0  0  0  0  0  0
   32.6345   35.1852   57.9962 H   0  0  0  0  0  0  0  0  0  0  0  0
   33.7344   33.1658   56.9657 H   0  0  0  0  0  0  0  0  0  0  0  0
   34.1779   32.0125   54.8374 H   0  0  0  0  0  0  0  0  0  0  0  0
   33.9392   33.2213   52.7068 H   0  0  0  0  0  0  0  0  0  0  0  0
   33.2460   35.5826   52.6971 H   0  0  0  0  0  0  0  0  0  0  0  0
   32.7914   36.7431   54.8192 H   0  0  0  0  0  0  0  0  0  0  0  0
   30.4190   39.6739   62.2205 H   0  0  0  0  0  0  0  0  0  0  0  0
   30.7274   39.2883   66.1816 H   0  0  0  0  0  0  0  0  0  0  0  0
   30.8796   40.5485   64.9338 H   0  0  0  0  0  0  0  0  0  0  0  0
   29.4920   40.5627   66.0483 H   0  0  0  0  0  0  0  0  0  0  0  0
   30.1802   35.6478   65.6841 H   0  0  0  0  0  0  0  0  0  0  0  0
  1  2  1  0  0  0  0
  1 26  1  0  0  0  0
  1 27  1  0  0  0  0
  1 28  1  0  0  0  0
  2  3  1  0  0  0  0
  3 24  2  0  0  0  0
  3  4  1  0  0  0  0
  4  5  2  0  0  0  0
  4 29  1  0  0  0  0
  5  6  1  0  0  0  0
  5 20  1  0  0  0  0
  6  7  2  0  0  0  0
  6 30  1  0  0  0  0
  7  8  1  0  0  0  0
  8 12  1  0  0  0  0
  8  9  1  0  0  0  0
  9 10  2  0  0  0  0
 10 11  1  0  0  0  0
 11 12  2  0  0  0  0
 12 13  1  0  0  0  0
 13 14  1  0  0  0  0
 13 31  1  0  0  0  0
 14 19  2  0  0  0  0
 14 15  1  0  0  0  0
 15 16  2  0  0  0  0
 15 32  1  0  0  0  0
 16 17  1  0  0  0  0
 16 33  1  0  0  0  0
 17 18  2  0  0  0  0
 17 34  1  0  0  0  0
 18 19  1  0  0  0  0
 18 35  1  0  0  0  0
 19 36  1  0  0  0  0
 20 21  2  0  0  0  0
 20 37  1  0  0  0  0
 21 22  1  0  0  0  0
 21 24  1  0  0  0  0
 22 23  1  0  0  0  0
 23 38  1  0  0  0  0
 23 39  1  0  0  0  0
 23 40  1  0  0  0  0
 24 25  1  0  0  0  0
 25 41  1  0  0  0  0
M  END
$$$$
