ZINC000000051712      none
 OpenBabel11202420153D

 31 32  0  0  0  0  0  0  0  0999 V2000
   31.0041   34.5762   59.6656 C   0  0  0  0  0  0  0  0  0  0  0  0
   31.6657   35.9506   59.5475 C   0  0  0  0  0  0  0  0  0  0  0  0
   32.1614   36.1281   58.2190 O   0  0  0  0  0  0  0  0  0  0  0  0
   32.7781   37.2972   57.9461 C   0  0  0  0  0  0  0  0  0  0  0  0
   32.8911   38.1426   58.8141 O   0  0  0  0  0  0  0  0  0  0  0  0
   33.2938   37.5403   56.6491 C   0  0  0  0  0  0  0  0  0  0  0  0
   33.9283   38.6692   56.2604 O   0  0  0  0  0  0  0  0  0  0  0  0
   34.2984   38.5943   54.9666 C   0  0  0  0  0  0  0  0  0  0  0  0
   34.9628   39.4724   54.1173 C   0  0  0  0  0  0  0  0  0  0  0  0
   35.2064   39.1105   52.8102 C   0  0  0  0  0  0  0  0  0  0  0  0
   34.7956   37.8754   52.3281 C   0  0  0  0  0  0  0  0  0  0  0  0
   34.1410   36.9968   53.1452 C   0  0  0  0  0  0  0  0  0  0  0  0
   33.8849   37.3450   54.4720 C   0  0  0  0  0  0  0  0  0  0  0  0
   33.2265   36.6686   55.5959 C   0  0  0  0  0  0  0  0  0  0  0  0
   32.6520   35.4037   55.5915 N   0  0  0  0  0  0  0  0  0  0  0  0
   33.3951   34.3251   55.9090 C   0  0  0  0  0  0  0  0  0  0  0  0
   32.7720   32.9528   55.9043 C   0  0  0  0  0  0  0  0  0  0  0  0
   34.5652   34.4587   56.1987 O   0  0  0  0  0  0  0  0  0  0  0  0
   31.7366   33.8000   59.4447 H   0  0  0  0  0  0  0  0  0  0  0  0
   30.6259   34.4409   60.6790 H   0  0  0  0  0  0  0  0  0  0  0  0
   30.1781   34.5085   58.9575 H   0  0  0  0  0  0  0  0  0  0  0  0
   32.4916   36.0183   60.2557 H   0  0  0  0  0  0  0  0  0  0  0  0
   30.9330   36.7268   59.7685 H   0  0  0  0  0  0  0  0  0  0  0  0
   35.2875   40.4359   54.4815 H   0  0  0  0  0  0  0  0  0  0  0  0
   35.7267   39.7933   52.1550 H   0  0  0  0  0  0  0  0  0  0  0  0
   34.9941   37.6072   51.3009 H   0  0  0  0  0  0  0  0  0  0  0  0
   33.8236   36.0368   52.7656 H   0  0  0  0  0  0  0  0  0  0  0  0
   31.7162   35.2967   55.3598 H   0  0  0  0  0  0  0  0  0  0  0  0
   32.3952   32.7284   54.9064 H   0  0  0  0  0  0  0  0  0  0  0  0
   33.5214   32.2125   56.1847 H   0  0  0  0  0  0  0  0  0  0  0  0
   31.9489   32.9251   56.6183 H   0  0  0  0  0  0  0  0  0  0  0  0
  1  2  1  0  0  0  0
  1 19  1  0  0  0  0
  1 20  1  0  0  0  0
  1 21  1  0  0  0  0
  2  3  1  0  0  0  0
  2 22  1  0  0  0  0
  2 23  1  0  0  0  0
  3  4  1  0  0  0  0
  4  5  2  0  0  0  0
  4  6  1  0  0  0  0
  6 14  2  0  0  0  0
  6  7  1  0  0  0  0
  7  8  1  0  0  0  0
  8 13  2  0  0  0  0
  8  9  1  0  0  0  0
  9 10  2  0  0  0  0
  9 24  1  0  0  0  0
 10 11  1  0  0  0  0
 10 25  1  0  0  0  0
 11 12  2  0  0  0  0
 11 26  1  0  0  0  0
 12 13  1  0  0  0  0
 12 27  1  0  0  0  0
 13 14  1  0  0  0  0
 14 15  1  0  0  0  0
 15 16  1  0  0  0  0
 15 28  1  0  0  0  0
 16 17  1  0  0  0  0
 16 18  2  0  0  0  0
 17 29  1  0  0  0  0
 17 30  1  0  0  0  0
 17 31  1  0  0  0  0
M  END
$$$$
