ZINC000000014915      none
 OpenBabel11202420153D

 48 50  0  0  1  0  0  0  0  0999 V2000
   33.9974   39.1735   55.6754 Cl  0  0  0  0  0  0  0  0  0  0  0  0
   33.3992   38.4951   57.1573 C   0  0  0  0  0  0  0  0  0  0  0  0
   32.9609   37.1820   57.1870 C   0  0  0  0  0  0  0  0  0  0  0  0
   32.4845   36.6376   58.3616 C   0  0  0  0  0  0  0  0  0  0  0  0
   32.4449   37.4129   59.5212 C   0  0  0  0  0  0  0  0  0  0  0  0
   31.9357   36.8353   60.7828 C   0  0  0  0  0  0  0  0  0  0  0  0
   32.0830   35.5453   60.9948 C   0  0  0  0  0  0  0  0  0  0  0  0
   31.6069   34.8635   62.2449 C   0  0  0  0  0  0  0  0  0  0  0  0
   30.6212   35.6994   62.9402 N   0  3  1  0  0  0  0  0  0  0  0  0
   29.7810   35.7651   62.3856 H   0  0  0  0  0  0  0  0  0  0  0  0
   30.3040   35.1033   64.2448 C   0  0  0  0  0  0  0  0  0  0  0  0
   28.9662   35.6524   64.7445 C   0  0  0  0  0  0  0  0  0  0  0  0
   28.6356   35.0315   66.1033 C   0  0  0  0  0  0  0  0  0  0  0  0
   29.6933   35.3680   67.0656 N   0  0  0  0  0  0  0  0  0  0  0  0
   29.7382   34.3900   68.1623 C   0  0  0  0  0  0  0  0  0  0  0  0
   30.8895   34.7437   69.1075 C   0  0  0  0  0  0  0  0  0  0  0  0
   30.7162   36.0817   69.5820 O   0  0  0  0  0  0  0  0  0  0  0  0
   30.6687   37.0604   68.5403 C   0  0  0  0  0  0  0  0  0  0  0  0
   29.5151   36.7301   67.5894 C   0  0  0  0  0  0  0  0  0  0  0  0
   31.1873   37.0433   63.1374 C   0  0  0  0  0  0  0  0  0  0  0  0
   31.2680   37.7435   61.7785 C   0  0  0  0  0  0  0  0  0  0  0  0
   32.8827   38.7374   59.4837 C   0  0  0  0  0  0  0  0  0  0  0  0
   33.3619   39.2694   58.3046 C   0  0  0  0  0  0  0  0  0  0  0  0
   32.9923   36.5828   56.2891 H   0  0  0  0  0  0  0  0  0  0  0  0
   32.1425   35.6134   58.3836 H   0  0  0  0  0  0  0  0  0  0  0  0
   32.5685   34.9501   60.2357 H   0  0  0  0  0  0  0  0  0  0  0  0
   32.4565   34.6844   62.9038 H   0  0  0  0  0  0  0  0  0  0  0  0
   31.1497   33.9092   61.9834 H   0  0  0  0  0  0  0  0  0  0  0  0
   31.0887   35.3530   64.9588 H   0  0  0  0  0  0  0  0  0  0  0  0
   30.2367   34.0202   64.1427 H   0  0  0  0  0  0  0  0  0  0  0  0
   28.1814   35.4028   64.0304 H   0  0  0  0  0  0  0  0  0  0  0  0
   29.0334   36.7356   64.8466 H   0  0  0  0  0  0  0  0  0  0  0  0
   28.5683   33.9485   66.0012 H   0  0  0  0  0  0  0  0  0  0  0  0
   27.6827   35.4228   66.4592 H   0  0  0  0  0  0  0  0  0  0  0  0
   28.7965   34.4146   68.7107 H   0  0  0  0  0  0  0  0  0  0  0  0
   29.8963   33.3919   67.7537 H   0  0  0  0  0  0  0  0  0  0  0  0
   31.8361   34.6670   68.5727 H   0  0  0  0  0  0  0  0  0  0  0  0
   30.8921   34.0553   69.9525 H   0  0  0  0  0  0  0  0  0  0  0  0
   31.6088   37.0510   67.9889 H   0  0  0  0  0  0  0  0  0  0  0  0
   30.5111   38.0477   68.9744 H   0  0  0  0  0  0  0  0  0  0  0  0
   29.5104   37.4403   66.7625 H   0  0  0  0  0  0  0  0  0  0  0  0
   28.5696   36.7922   68.1279 H   0  0  0  0  0  0  0  0  0  0  0  0
   30.5453   37.6160   63.8066 H   0  0  0  0  0  0  0  0  0  0  0  0
   32.1847   36.9605   63.5691 H   0  0  0  0  0  0  0  0  0  0  0  0
   30.2624   37.9836   61.4335 H   0  0  0  0  0  0  0  0  0  0  0  0
   31.8466   38.6620   61.8772 H   0  0  0  0  0  0  0  0  0  0  0  0
   32.8501   39.3435   60.3769 H   0  0  0  0  0  0  0  0  0  0  0  0
   33.7050   40.2930   58.2754 H   0  0  0  0  0  0  0  0  0  0  0  0
  1  2  1  0  0  0  0
  2 23  2  0  0  0  0
  2  3  1  0  0  0  0
  3  4  2  0  0  0  0
  3 24  1  0  0  0  0
  4  5  1  0  0  0  0
  4 25  1  0  0  0  0
  5  6  1  0  0  0  0
  5 22  2  0  0  0  0
  6 21  1  0  0  0  0
  6  7  2  0  0  0  0
  7  8  1  0  0  0  0
  7 26  1  0  0  0  0
  8  9  1  0  0  0  0
  8 27  1  0  0  0  0
  8 28  1  0  0  0  0
  9 10  1  6  0  0  0
  9 11  1  0  0  0  0
  9 20  1  0  0  0  0
 11 12  1  0  0  0  0
 11 29  1  0  0  0  0
 11 30  1  0  0  0  0
 12 13  1  0  0  0  0
 12 31  1  0  0  0  0
 12 32  1  0  0  0  0
 13 14  1  0  0  0  0
 13 33  1  0  0  0  0
 13 34  1  0  0  0  0
 14 19  1  0  0  0  0
 14 15  1  0  0  0  0
 15 16  1  0  0  0  0
 15 35  1  0  0  0  0
 15 36  1  0  0  0  0
 16 17  1  0  0  0  0
 16 37  1  0  0  0  0
 16 38  1  0  0  0  0
 17 18  1  0  0  0  0
 18 19  1  0  0  0  0
 18 39  1  0  0  0  0
 18 40  1  0  0  0  0
 19 41  1  0  0  0  0
 19 42  1  0  0  0  0
 20 21  1  0  0  0  0
 20 43  1  0  0  0  0
 20 44  1  0  0  0  0
 21 45  1  0  0  0  0
 21 46  1  0  0  0  0
 22 23  1  0  0  0  0
 22 47  1  0  0  0  0
 23 48  1  0  0  0  0
M  CHG  1   9   1
M  END
$$$$
