ZINC000000033621      none
 OpenBabel11202420153D

 34 35  0  0  0  0  0  0  0  0999 V2000
   31.7150   37.3187   59.2039 C   0  0  0  0  0  0  0  0  0  0  0  0
   31.2655   37.1001   60.6256 C   0  0  0  0  0  0  0  0  0  0  0  0
   32.1939   37.0863   61.6497 C   0  0  0  0  0  0  0  0  0  0  0  0
   31.7816   36.8858   62.9538 C   0  0  0  0  0  0  0  0  0  0  0  0
   30.4409   36.6991   63.2339 C   0  0  0  0  0  0  0  0  0  0  0  0
   29.9153   36.4430   64.8960 S   0  0  0  0  0  0  0  0  0  0  0  0
   28.6728   35.7574   64.8229 O   0  0  0  0  0  0  0  0  0  0  0  0
   31.0417   35.9375   65.5995 O   0  0  0  0  0  0  0  0  0  0  0  0
   29.5901   37.9327   65.5423 N   0  0  0  0  0  0  0  0  0  0  0  0
   30.6488   38.6830   66.2225 C   0  0  0  0  0  0  0  0  0  0  0  0
   30.3941   40.1831   66.0623 C   0  0  0  0  0  0  0  0  0  0  0  0
   29.0974   40.5240   66.6526 N   0  0  0  0  0  0  0  0  0  0  0  0
   28.8638   40.8996   67.9221 C   0  0  0  0  0  0  0  0  0  0  0  0
   27.5797   41.1144   68.0521 N   0  0  0  0  0  0  0  0  0  0  0  0
   26.9638   40.8875   66.8926 C   0  0  0  0  0  0  0  0  0  0  0  0
   25.5104   41.0259   66.6491 N   0  0  0  0  0  0  0  0  0  0  0  0
   25.0542   42.0919   66.2762 O   0  0  0  0  0  0  0  0  0  0  0  0
   24.7705   40.0739   66.8217 O   0  0  0  0  0  0  0  0  0  0  0  0
   27.8521   40.5294   66.0030 N   0  0  0  0  0  0  0  0  0  0  0  0
   29.5130   36.7077   62.2091 C   0  0  0  0  0  0  0  0  0  0  0  0
   29.9247   36.9139   60.9057 C   0  0  0  0  0  0  0  0  0  0  0  0
   31.9397   36.3573   58.7421 H   0  0  0  0  0  0  0  0  0  0  0  0
   30.9218   37.8142   58.6442 H   0  0  0  0  0  0  0  0  0  0  0  0
   32.6087   37.9427   59.1973 H   0  0  0  0  0  0  0  0  0  0  0  0
   33.2415   37.2318   61.4310 H   0  0  0  0  0  0  0  0  0  0  0  0
   32.5070   36.8747   63.7538 H   0  0  0  0  0  0  0  0  0  0  0  0
   28.6987   38.3084   65.4705 H   0  0  0  0  0  0  0  0  0  0  0  0
   30.6529   38.4261   67.2818 H   0  0  0  0  0  0  0  0  0  0  0  0
   31.6136   38.4293   65.7832 H   0  0  0  0  0  0  0  0  0  0  0  0
   31.1817   40.7414   66.5683 H   0  0  0  0  0  0  0  0  0  0  0  0
   30.3898   40.4398   65.0030 H   0  0  0  0  0  0  0  0  0  0  0  0
   29.6064   41.0057   68.6990 H   0  0  0  0  0  0  0  0  0  0  0  0
   28.4660   36.5574   62.4274 H   0  0  0  0  0  0  0  0  0  0  0  0
   29.1994   36.9251   60.1056 H   0  0  0  0  0  0  0  0  0  0  0  0
  1  2  1  0  0  0  0
  1 22  1  0  0  0  0
  1 23  1  0  0  0  0
  1 24  1  0  0  0  0
  2 21  2  0  0  0  0
  2  3  1  0  0  0  0
  3  4  2  0  0  0  0
  3 25  1  0  0  0  0
  4  5  1  0  0  0  0
  4 26  1  0  0  0  0
  5  6  1  0  0  0  0
  5 20  2  0  0  0  0
  6  7  2  0  0  0  0
  6  8  2  0  0  0  0
  6  9  1  0  0  0  0
  9 10  1  0  0  0  0
  9 27  1  0  0  0  0
 10 11  1  0  0  0  0
 10 28  1  0  0  0  0
 10 29  1  0  0  0  0
 11 12  1  0  0  0  0
 11 30  1  0  0  0  0
 11 31  1  0  0  0  0
 12 19  1  0  0  0  0
 12 13  1  0  0  0  0
 13 14  2  0  0  0  0
 13 32  1  0  0  0  0
 14 15  1  0  0  0  0
 15 16  1  0  0  0  0
 15 19  2  0  0  0  0
 16 17  2  0  0  0  0
 16 18  2  0  0  0  0
 20 21  1  0  0  0  0
 20 33  1  0  0  0  0
 21 34  1  0  0  0  0
M  END
$$$$
