ZINC000000008634      none
 OpenBabel11202420153D

 32 36  0  0  0  0  0  0  0  0999 V2000
   33.5639   40.6198   58.4752 O   0  0  0  0  0  0  0  0  0  0  0  0
   33.3438   39.4853   58.1020 C   0  0  0  0  0  0  0  0  0  0  0  0
   32.6176   38.5407   58.9807 C   0  0  0  0  0  0  0  0  0  0  0  0
   32.0937   38.6553   60.2090 N   0  0  0  0  0  0  0  0  0  0  0  0
   31.5421   37.5169   60.5589 C   0  0  0  0  0  0  0  0  0  0  0  0
   31.6946   36.6218   59.5658 N   0  0  0  0  0  0  0  0  0  0  0  0
   32.3726   37.2490   58.5508 C   0  0  0  0  0  0  0  0  0  0  0  0
   32.8287   36.8069   57.2232 C   0  0  0  0  0  0  0  0  0  0  0  0
   32.6116   35.6698   56.8510 O   0  0  0  0  0  0  0  0  0  0  0  0
   33.5480   37.7458   56.3474 C   0  0  0  0  0  0  0  0  0  0  0  0
   33.8006   39.0398   56.7662 C   0  0  0  0  0  0  0  0  0  0  0  0
   34.4623   39.6544   55.7757 N   0  0  0  0  0  0  0  0  0  0  0  0
   34.6315   38.8200   54.7769 C   0  0  0  0  0  0  0  0  0  0  0  0
   34.0802   37.6324   55.0875 N   0  0  0  0  0  0  0  0  0  0  0  0
   34.2420   36.6666   53.9902 C   0  0  0  0  0  0  0  0  0  0  0  0
   35.3552   37.2459   53.0912 C   0  0  0  0  0  0  0  0  0  0  0  0
   35.2460   38.7576   53.3915 C   0  0  0  0  0  0  0  0  0  0  0  0
   31.0954   35.3261   59.9197 C   0  0  0  0  0  0  0  0  0  0  0  0
   30.1463   35.6193   61.1013 C   0  0  0  0  0  0  0  0  0  0  0  0
   30.7890   36.8840   61.7136 C   0  0  0  0  0  0  0  0  0  0  0  0
   34.5424   35.6954   54.3837 H   0  0  0  0  0  0  0  0  0  0  0  0
   33.3126   36.5753   53.4281 H   0  0  0  0  0  0  0  0  0  0  0  0
   35.1537   37.0413   52.0397 H   0  0  0  0  0  0  0  0  0  0  0  0
   36.3324   36.8600   53.3815 H   0  0  0  0  0  0  0  0  0  0  0  0
   34.5967   39.2449   52.6641 H   0  0  0  0  0  0  0  0  0  0  0  0
   36.2328   39.2207   53.3908 H   0  0  0  0  0  0  0  0  0  0  0  0
   30.5338   34.9270   59.0750 H   0  0  0  0  0  0  0  0  0  0  0  0
   31.8705   34.6227   60.2241 H   0  0  0  0  0  0  0  0  0  0  0  0
   29.1362   35.8269   60.7483 H   0  0  0  0  0  0  0  0  0  0  0  0
   30.1470   34.7962   61.8159 H   0  0  0  0  0  0  0  0  0  0  0  0
   31.4769   36.6123   62.5143 H   0  0  0  0  0  0  0  0  0  0  0  0
   30.0197   37.5615   62.0840 H   0  0  0  0  0  0  0  0  0  0  0  0
  1  2  2  0  0  0  0
  2 11  1  0  0  0  0
  2  3  1  0  0  0  0
  3  7  2  0  0  0  0
  3  4  1  0  0  0  0
  4  5  2  0  0  0  0
  5 20  1  0  0  0  0
  5  6  1  0  0  0  0
  6  7  1  0  0  0  0
  6 18  1  0  0  0  0
  7  8  1  0  0  0  0
  8  9  2  0  0  0  0
  8 10  1  0  0  0  0
 10 14  1  0  0  0  0
 10 11  2  0  0  0  0
 11 12  1  0  0  0  0
 12 13  2  0  0  0  0
 13 17  1  0  0  0  0
 13 14  1  0  0  0  0
 14 15  1  0  0  0  0
 15 16  1  0  0  0  0
 15 21  1  0  0  0  0
 15 22  1  0  0  0  0
 16 17  1  0  0  0  0
 16 23  1  0  0  0  0
 16 24  1  0  0  0  0
 17 25  1  0  0  0  0
 17 26  1  0  0  0  0
 18 19  1  0  0  0  0
 18 27  1  0  0  0  0
 18 28  1  0  0  0  0
 19 20  1  0  0  0  0
 19 29  1  0  0  0  0
 19 30  1  0  0  0  0
 20 31  1  0  0  0  0
 20 32  1  0  0  0  0
M  END
$$$$
