ZINC000000027925      none
 OpenBabel11202420153D

 30 32  0  0  0  0  0  0  0  0999 V2000
   32.9653   35.9883   53.7494 C   0  0  0  0  0  0  0  0  0  0  0  0
   34.1016   36.1848   54.7548 C   0  0  0  0  0  0  0  0  0  0  0  0
   33.5233   36.4280   56.1252 C   0  0  0  0  0  0  0  0  0  0  0  0
   33.2727   35.3593   56.9668 C   0  0  0  0  0  0  0  0  0  0  0  0
   32.7485   35.5765   58.2249 C   0  0  0  0  0  0  0  0  0  0  0  0
   32.4611   36.8748   58.6425 C   0  0  0  0  0  0  0  0  0  0  0  0
   31.8916   37.1141   59.9911 C   0  0  0  0  0  0  0  0  0  0  0  0
   30.5778   37.1452   60.3055 C   0  0  0  0  0  0  0  0  0  0  0  0
   30.4866   37.3974   61.6723 N   0  0  0  0  0  0  0  0  0  0  0  0
   31.7535   37.5080   62.1249 C   0  0  0  0  0  0  0  0  0  0  0  0
   32.5959   37.3342   61.1255 N   0  0  0  0  0  0  0  0  0  0  0  0
   31.7496   37.8305   63.8648 S   0  0  0  0  0  0  0  0  0  0  0  0
   29.9420   37.8284   64.0582 C   0  0  0  0  0  0  0  0  0  0  0  0
   29.4139   37.5565   62.6501 C   0  0  0  0  0  0  0  0  0  0  0  0
   32.7104   37.9474   57.7880 C   0  0  0  0  0  0  0  0  0  0  0  0
   33.2400   37.7187   56.5342 C   0  0  0  0  0  0  0  0  0  0  0  0
   32.3616   35.1306   54.0464 H   0  0  0  0  0  0  0  0  0  0  0  0
   33.3836   35.8124   52.7583 H   0  0  0  0  0  0  0  0  0  0  0  0
   32.3410   36.8816   53.7271 H   0  0  0  0  0  0  0  0  0  0  0  0
   34.7258   35.2916   54.7772 H   0  0  0  0  0  0  0  0  0  0  0  0
   34.7052   37.0425   54.4578 H   0  0  0  0  0  0  0  0  0  0  0  0
   33.4917   34.3532   56.6405 H   0  0  0  0  0  0  0  0  0  0  0  0
   32.5574   34.7417   58.8830 H   0  0  0  0  0  0  0  0  0  0  0  0
   29.7523   37.0010   59.6241 H   0  0  0  0  0  0  0  0  0  0  0  0
   29.6324   37.0373   64.7411 H   0  0  0  0  0  0  0  0  0  0  0  0
   29.5957   38.7978   64.4168 H   0  0  0  0  0  0  0  0  0  0  0  0
   28.7784   38.3877   62.3446 H   0  0  0  0  0  0  0  0  0  0  0  0
   28.8148   36.6460   62.6679 H   0  0  0  0  0  0  0  0  0  0  0  0
   32.4892   38.9553   58.1064 H   0  0  0  0  0  0  0  0  0  0  0  0
   33.4332   38.5490   55.8713 H   0  0  0  0  0  0  0  0  0  0  0  0
  1  2  1  0  0  0  0
  1 17  1  0  0  0  0
  1 18  1  0  0  0  0
  1 19  1  0  0  0  0
  2  3  1  0  0  0  0
  2 20  1  0  0  0  0
  2 21  1  0  0  0  0
  3 16  2  0  0  0  0
  3  4  1  0  0  0  0
  4  5  2  0  0  0  0
  4 22  1  0  0  0  0
  5  6  1  0  0  0  0
  5 23  1  0  0  0  0
  6  7  1  0  0  0  0
  6 15  2  0  0  0  0
  7 11  1  0  0  0  0
  7  8  2  0  0  0  0
  8  9  1  0  0  0  0
  8 24  1  0  0  0  0
  9 14  1  0  0  0  0
  9 10  1  0  0  0  0
 10 11  2  0  0  0  0
 10 12  1  0  0  0  0
 12 13  1  0  0  0  0
 13 14  1  0  0  0  0
 13 25  1  0  0  0  0
 13 26  1  0  0  0  0
 14 27  1  0  0  0  0
 14 28  1  0  0  0  0
 15 16  1  0  0  0  0
 15 29  1  0  0  0  0
 16 30  1  0  0  0  0
M  END
$$$$
