ZINC000000046356      none
 OpenBabel11202420153D

 31 32  0  0  0  0  0  0  0  0999 V2000
   31.1943   33.3355   59.3800 C   0  0  0  0  0  0  0  0  0  0  0  0
   31.3597   34.6217   59.9804 O   0  0  0  0  0  0  0  0  0  0  0  0
   31.9147   35.5916   59.2138 C   0  0  0  0  0  0  0  0  0  0  0  0
   32.2889   35.3092   57.9008 C   0  0  0  0  0  0  0  0  0  0  0  0
   32.8482   36.2509   57.0967 C   0  0  0  0  0  0  0  0  0  0  0  0
   33.0731   37.5598   57.5636 C   0  0  0  0  0  0  0  0  0  0  0  0
   33.6505   38.5380   56.7373 C   0  0  0  0  0  0  0  0  0  0  0  0
   33.8528   39.7956   57.2212 C   0  0  0  0  0  0  0  0  0  0  0  0
   33.4963   40.1269   58.5251 C   0  0  0  0  0  0  0  0  0  0  0  0
   32.9337   39.2001   59.3538 C   0  0  0  0  0  0  0  0  0  0  0  0
   32.7121   37.9008   58.8887 C   0  0  0  0  0  0  0  0  0  0  0  0
   32.1048   36.8762   59.7431 C   0  0  0  0  0  0  0  0  0  0  0  0
   31.7238   37.1750   61.0712 C   0  0  0  0  0  0  0  0  0  0  0  0
   30.4041   37.0345   61.4602 C   0  0  0  0  0  0  0  0  0  0  0  0
   29.4235   36.5865   60.5175 C   0  0  0  0  0  0  0  0  0  0  0  0
   28.6456   36.2311   59.7698 N   0  0  0  0  0  0  0  0  0  0  0  0
   30.0085   37.3447   62.8391 C   0  0  0  0  0  0  0  0  0  0  0  0
   28.9746   36.6921   63.4065 N   0  0  0  0  0  0  0  0  0  0  0  0
   30.8601   38.5352   63.7268 S   0  0  0  0  0  0  0  0  0  0  0  0
   32.1670   32.9483   59.0768 H   0  0  0  0  0  0  0  0  0  0  0  0
   30.7404   32.6542   60.0999 H   0  0  0  0  0  0  0  0  0  0  0  0
   30.5492   33.4229   58.5057 H   0  0  0  0  0  0  0  0  0  0  0  0
   32.1300   34.3140   57.5121 H   0  0  0  0  0  0  0  0  0  0  0  0
   33.1244   35.9916   56.0854 H   0  0  0  0  0  0  0  0  0  0  0  0
   33.9323   38.2948   55.7235 H   0  0  0  0  0  0  0  0  0  0  0  0
   34.2965   40.5460   56.5839 H   0  0  0  0  0  0  0  0  0  0  0  0
   33.6667   41.1306   58.8856 H   0  0  0  0  0  0  0  0  0  0  0  0
   32.6610   39.4692   60.3636 H   0  0  0  0  0  0  0  0  0  0  0  0
   32.4632   37.5128   61.7822 H   0  0  0  0  0  0  0  0  0  0  0  0
   28.4921   36.0175   62.9037 H   0  0  0  0  0  0  0  0  0  0  0  0
   28.7132   36.8970   64.3178 H   0  0  0  0  0  0  0  0  0  0  0  0
  1  2  1  0  0  0  0
  1 20  1  0  0  0  0
  1 21  1  0  0  0  0
  1 22  1  0  0  0  0
  2  3  1  0  0  0  0
  3 12  2  0  0  0  0
  3  4  1  0  0  0  0
  4  5  2  0  0  0  0
  4 23  1  0  0  0  0
  5  6  1  0  0  0  0
  5 24  1  0  0  0  0
  6 11  2  0  0  0  0
  6  7  1  0  0  0  0
  7  8  2  0  0  0  0
  7 25  1  0  0  0  0
  8  9  1  0  0  0  0
  8 26  1  0  0  0  0
  9 10  2  0  0  0  0
  9 27  1  0  0  0  0
 10 11  1  0  0  0  0
 10 28  1  0  0  0  0
 11 12  1  0  0  0  0
 12 13  1  0  0  0  0
 13 14  2  0  0  0  0
 13 29  1  0  0  0  0
 14 15  1  0  0  0  0
 14 17  1  0  0  0  0
 15 16  3  0  0  0  0
 17 18  1  0  0  0  0
 17 19  2  0  0  0  0
 18 30  1  0  0  0  0
 18 31  1  0  0  0  0
M  END
$$$$
