ZINC000000055139      none
 OpenBabel11202420153D

 20 21  0  0  0  0  0  0  0  0999 V2000
   33.4222   37.1120   54.7749 N   0  0  0  0  0  0  0  0  0  0  0  0
   33.2866   36.5462   56.0365 C   0  0  0  0  0  0  0  0  0  0  0  0
   32.9515   37.1810   57.1267 N   0  0  0  0  0  0  0  0  0  0  0  0
   32.9327   36.2441   58.1890 O   0  0  0  0  0  0  0  0  0  0  0  0
   33.2788   34.9794   57.6525 N   0  0  0  0  0  4  0  0  0  0  0  0
   33.3781   33.7657   58.3749 O   0  5  0  0  0  0  0  0  0  0  0  0
   33.4909   35.1330   56.3700 C   0  0  0  0  0  0  0  0  0  0  0  0
   33.8773   34.0626   55.4188 C   0  0  0  0  0  0  0  0  0  0  0  0
   35.0577   33.3473   55.6127 C   0  0  0  0  0  0  0  0  0  0  0  0
   35.4125   32.3527   54.7242 C   0  0  0  0  0  0  0  0  0  0  0  0
   34.5993   32.0653   53.6427 C   0  0  0  0  0  0  0  0  0  0  0  0
   33.4295   32.7759   53.4422 C   0  0  0  0  0  0  0  0  0  0  0  0
   33.0618   33.7687   54.3275 C   0  0  0  0  0  0  0  0  0  0  0  0
   33.6729   36.5579   54.0192 H   0  0  0  0  0  0  0  0  0  0  0  0
   33.2660   38.0611   54.6496 H   0  0  0  0  0  0  0  0  0  0  0  0
   35.6936   33.5712   56.4564 H   0  0  0  0  0  0  0  0  0  0  0  0
   36.3272   31.7980   54.8733 H   0  0  0  0  0  0  0  0  0  0  0  0
   34.8810   31.2862   52.9498 H   0  0  0  0  0  0  0  0  0  0  0  0
   32.8009   32.5505   52.5935 H   0  0  0  0  0  0  0  0  0  0  0  0
   32.1458   34.3196   54.1726 H   0  0  0  0  0  0  0  0  0  0  0  0
  1  2  1  0  0  0  0
  1 14  1  0  0  0  0
  1 15  1  0  0  0  0
  2  7  1  0  0  0  0
  2  3  2  0  0  0  0
  3  4  1  0  0  0  0
  4  5  1  0  0  0  0
  5  6  1  0  0  0  0
  5  7  2  0  0  0  0
  7  8  1  0  0  0  0
  8 13  2  0  0  0  0
  8  9  1  0  0  0  0
  9 10  2  0  0  0  0
  9 16  1  0  0  0  0
 10 11  1  0  0  0  0
 10 17  1  0  0  0  0
 11 12  2  0  0  0  0
 11 18  1  0  0  0  0
 12 13  1  0  0  0  0
 12 19  1  0  0  0  0
 13 20  1  0  0  0  0
M  CHG  1   6  -1
M  END
$$$$
