ZINC000000006937      none
 OpenBabel11202420153D

 31 34  0  0  0  0  0  0  0  0999 V2000
   30.6221   36.2589   63.8340 N   0  0  0  0  0  0  0  0  0  0  0  0
   31.0434   36.7099   62.5838 C   0  0  0  0  0  0  0  0  0  0  0  0
   32.3680   37.0886   62.3927 C   0  0  0  0  0  0  0  0  0  0  0  0
   32.7882   37.5301   61.1572 C   0  0  0  0  0  0  0  0  0  0  0  0
   31.8805   37.6078   60.0995 C   0  0  0  0  0  0  0  0  0  0  0  0
   32.3274   38.0871   58.7728 C   0  0  0  0  0  0  0  0  0  0  0  0
   32.2791   39.3753   58.4693 N   0  0  0  0  0  0  0  0  0  0  0  0
   32.6537   39.8431   57.3373 N   0  0  0  0  0  0  0  0  0  0  0  0
   33.1240   39.0963   56.3624 C   0  0  0  0  0  0  0  0  0  0  0  0
   33.2293   37.7074   56.5526 C   0  0  0  0  0  0  0  0  0  0  0  0
   33.7210   36.8445   55.5650 C   0  0  0  0  0  0  0  0  0  0  0  0
   33.7952   35.5033   55.8172 C   0  0  0  0  0  0  0  0  0  0  0  0
   33.3837   34.9806   57.0555 C   0  0  0  0  0  0  0  0  0  0  0  0
   32.9005   35.8023   58.0361 C   0  0  0  0  0  0  0  0  0  0  0  0
   32.8203   37.1785   57.8062 C   0  0  0  0  0  0  0  0  0  0  0  0
   33.5648   33.6274   57.0337 O   0  0  0  0  0  0  0  0  0  0  0  0
   34.4685   33.3773   55.9417 C   0  0  0  0  0  0  0  0  0  0  0  0
   34.2294   34.4706   55.0366 O   0  0  0  0  0  0  0  0  0  0  0  0
   30.5504   37.2322   60.2955 C   0  0  0  0  0  0  0  0  0  0  0  0
   30.1369   36.7860   61.5316 C   0  0  0  0  0  0  0  0  0  0  0  0
   29.6976   35.9984   63.9693 H   0  0  0  0  0  0  0  0  0  0  0  0
   31.2544   36.2018   64.5673 H   0  0  0  0  0  0  0  0  0  0  0  0
   33.0688   37.0325   63.2126 H   0  0  0  0  0  0  0  0  0  0  0  0
   33.8178   37.8197   61.0081 H   0  0  0  0  0  0  0  0  0  0  0  0
   33.4261   39.5446   55.4273 H   0  0  0  0  0  0  0  0  0  0  0  0
   34.0399   37.2365   54.6104 H   0  0  0  0  0  0  0  0  0  0  0  0
   32.5870   35.3908   58.9841 H   0  0  0  0  0  0  0  0  0  0  0  0
   35.5012   33.3880   56.2899 H   0  0  0  0  0  0  0  0  0  0  0  0
   34.2369   32.4252   55.4642 H   0  0  0  0  0  0  0  0  0  0  0  0
   29.8461   37.2910   59.4789 H   0  0  0  0  0  0  0  0  0  0  0  0
   29.1080   36.4952   61.6839 H   0  0  0  0  0  0  0  0  0  0  0  0
  1  2  1  0  0  0  0
  1 21  1  0  0  0  0
  1 22  1  0  0  0  0
  2 20  2  0  0  0  0
  2  3  1  0  0  0  0
  3  4  2  0  0  0  0
  3 23  1  0  0  0  0
  4  5  1  0  0  0  0
  4 24  1  0  0  0  0
  5  6  1  0  0  0  0
  5 19  2  0  0  0  0
  6 15  2  0  0  0  0
  6  7  1  0  0  0  0
  7  8  2  0  0  0  0
  8  9  1  0  0  0  0
  9 10  2  0  0  0  0
  9 25  1  0  0  0  0
 10 15  1  0  0  0  0
 10 11  1  0  0  0  0
 11 12  2  0  0  0  0
 11 26  1  0  0  0  0
 12 18  1  0  0  0  0
 12 13  1  0  0  0  0
 13 14  2  0  0  0  0
 13 16  1  0  0  0  0
 14 15  1  0  0  0  0
 14 27  1  0  0  0  0
 16 17  1  0  0  0  0
 17 18  1  0  0  0  0
 17 28  1  0  0  0  0
 17 29  1  0  0  0  0
 19 20  1  0  0  0  0
 19 30  1  0  0  0  0
 20 31  1  0  0  0  0
M  END
$$$$
