ZINC000000040768      none
 OpenBabel11202420153D

 37 38  0  0  0  0  0  0  0  0999 V2000
   35.0222   32.0751   54.4735 C   0  0  0  0  0  0  0  0  0  0  0  0
   35.0986   33.1484   55.5610 C   0  0  0  0  0  0  0  0  0  0  0  0
   33.9661   33.0092   56.4590 O   0  0  0  0  0  0  0  0  0  0  0  0
   32.7426   33.1285   55.9198 C   0  0  0  0  0  0  0  0  0  0  0  0
   32.6220   33.3422   54.7368 O   0  0  0  0  0  0  0  0  0  0  0  0
   31.5195   32.9957   56.7901 C   0  0  0  0  0  0  0  0  0  0  0  0
   31.9085   33.5555   58.4669 S   0  0  0  0  0  0  0  0  0  0  0  0
   32.3723   35.2223   58.1330 C   0  0  0  0  0  0  0  0  0  0  0  0
   32.9234   35.6507   57.0146 N   0  0  0  0  0  0  0  0  0  0  0  0
   33.1469   36.9632   57.0903 C   0  0  0  0  0  0  0  0  0  0  0  0
   32.7081   37.3928   58.3385 C   0  0  0  0  0  0  0  0  0  0  0  0
   32.8298   38.7513   58.6787 C   0  0  0  0  0  0  0  0  0  0  0  0
   32.4476   39.1507   59.7648 O   0  0  0  0  0  0  0  0  0  0  0  0
   33.3692   39.6093   57.7882 N   0  0  0  0  0  0  0  0  0  0  0  0
   33.4543   40.5473   58.0200 H   0  0  0  0  0  0  0  0  0  0  0  0
   33.7902   39.1840   56.5845 C   0  0  0  0  0  0  0  0  0  0  0  0
   34.2713   39.9859   55.8073 O   0  0  0  0  0  0  0  0  0  0  0  0
   33.6923   37.8921   56.2185 N   0  0  0  0  0  0  0  0  0  0  0  0
   34.1630   37.4679   54.8975 C   0  0  0  0  0  0  0  0  0  0  0  0
   32.2174   36.2683   58.9891 N   0  0  0  0  0  0  0  0  0  0  0  0
   31.6444   36.2180   60.3363 C   0  0  0  0  0  0  0  0  0  0  0  0
   30.1348   36.4547   60.2577 C   0  0  0  0  0  0  0  0  0  0  0  0
   35.0439   31.0879   54.9352 H   0  0  0  0  0  0  0  0  0  0  0  0
   34.0959   32.1928   53.9111 H   0  0  0  0  0  0  0  0  0  0  0  0
   35.8723   32.1796   53.7994 H   0  0  0  0  0  0  0  0  0  0  0  0
   35.0769   34.1356   55.0993 H   0  0  0  0  0  0  0  0  0  0  0  0
   36.0248   33.0307   56.1234 H   0  0  0  0  0  0  0  0  0  0  0  0
   31.2057   31.9523   56.8191 H   0  0  0  0  0  0  0  0  0  0  0  0
   30.7144   33.6061   56.3810 H   0  0  0  0  0  0  0  0  0  0  0  0
   33.3467   37.5439   54.1793 H   0  0  0  0  0  0  0  0  0  0  0  0
   34.9857   38.1095   54.5818 H   0  0  0  0  0  0  0  0  0  0  0  0
   34.5069   36.4349   54.9489 H   0  0  0  0  0  0  0  0  0  0  0  0
   31.8362   35.2394   60.7765 H   0  0  0  0  0  0  0  0  0  0  0  0
   32.1015   36.9904   60.9548 H   0  0  0  0  0  0  0  0  0  0  0  0
   29.9430   37.4333   59.8175 H   0  0  0  0  0  0  0  0  0  0  0  0
   29.6776   35.6822   59.6394 H   0  0  0  0  0  0  0  0  0  0  0  0
   29.7084   36.4174   61.2602 H   0  0  0  0  0  0  0  0  0  0  0  0
  1  2  1  0  0  0  0
  1 23  1  0  0  0  0
  1 24  1  0  0  0  0
  1 25  1  0  0  0  0
  2  3  1  0  0  0  0
  2 26  1  0  0  0  0
  2 27  1  0  0  0  0
  3  4  1  0  0  0  0
  4  5  2  0  0  0  0
  4  6  1  0  0  0  0
  6  7  1  0  0  0  0
  6 28  1  0  0  0  0
  6 29  1  0  0  0  0
  7  8  1  0  0  0  0
  8 20  1  0  0  0  0
  8  9  2  0  0  0  0
  9 10  1  0  0  0  0
 10 18  1  0  0  0  0
 10 11  2  0  0  0  0
 11 12  1  0  0  0  0
 11 20  1  0  0  0  0
 12 13  2  0  0  0  0
 12 14  1  0  0  0  0
 14 15  1  0  0  0  0
 14 16  1  0  0  0  0
 16 17  2  0  0  0  0
 16 18  1  0  0  0  0
 18 19  1  0  0  0  0
 19 30  1  0  0  0  0
 19 31  1  0  0  0  0
 19 32  1  0  0  0  0
 20 21  1  0  0  0  0
 21 22  1  0  0  0  0
 21 33  1  0  0  0  0
 21 34  1  0  0  0  0
 22 35  1  0  0  0  0
 22 36  1  0  0  0  0
 22 37  1  0  0  0  0
M  END
$$$$
