ZINC000000034621      none
 OpenBabel11202420153D

 35 36  0  0  0  0  0  0  0  0999 V2000
   32.6487   33.3615   60.7035 C   0  0  0  0  0  0  0  0  0  0  0  0
   31.9088   34.4966   61.3632 C   0  0  0  0  0  0  0  0  0  0  0  0
   31.5399   34.4162   62.7058 C   0  0  0  0  0  0  0  0  0  0  0  0
   30.8681   35.4408   63.2905 C   0  0  0  0  0  0  0  0  0  0  0  0
   30.4718   35.3333   64.7404 C   0  0  0  0  0  0  0  0  0  0  0  0
   30.5479   36.5581   62.5952 N   0  0  0  0  0  0  0  0  0  0  0  0
   29.8232   37.6410   63.2649 C   0  0  0  0  0  0  0  0  0  0  0  0
   30.8854   36.6899   61.2983 C   0  0  0  0  0  0  0  0  0  0  0  0
   30.5881   37.7029   60.6891 O   0  0  0  0  0  0  0  0  0  0  0  0
   31.5878   35.6455   60.6429 C   0  0  0  0  0  0  0  0  0  0  0  0
   31.9651   35.7710   59.2272 C   0  0  0  0  0  0  0  0  0  0  0  0
   31.5473   34.9693   58.4129 O   0  0  0  0  0  0  0  0  0  0  0  0
   32.7736   36.7742   58.8316 N   0  0  0  0  0  0  0  0  0  0  0  0
   33.1326   36.8934   57.4846 C   0  0  0  0  0  0  0  0  0  0  0  0
   33.2247   35.7611   56.6859 C   0  0  0  0  0  0  0  0  0  0  0  0
   33.5853   35.8816   55.3582 C   0  0  0  0  0  0  0  0  0  0  0  0
   33.8432   37.1293   54.8201 C   0  0  0  0  0  0  0  0  0  0  0  0
   33.7531   38.2592   55.6119 C   0  0  0  0  0  0  0  0  0  0  0  0
   33.3983   38.1454   56.9429 C   0  0  0  0  0  0  0  0  0  0  0  0
   33.2842   39.5644   57.9365 Cl  0  0  0  0  0  0  0  0  0  0  0  0
   33.7197   33.5623   60.7291 H   0  0  0  0  0  0  0  0  0  0  0  0
   32.4401   32.4336   61.2359 H   0  0  0  0  0  0  0  0  0  0  0  0
   32.3216   33.2677   59.6679 H   0  0  0  0  0  0  0  0  0  0  0  0
   31.7849   33.5350   63.2802 H   0  0  0  0  0  0  0  0  0  0  0  0
   29.4835   34.8797   64.8142 H   0  0  0  0  0  0  0  0  0  0  0  0
   31.1961   34.7142   65.2700 H   0  0  0  0  0  0  0  0  0  0  0  0
   30.4494   36.3278   65.1857 H   0  0  0  0  0  0  0  0  0  0  0  0
   29.6519   38.4541   62.5597 H   0  0  0  0  0  0  0  0  0  0  0  0
   28.8657   37.2671   63.6280 H   0  0  0  0  0  0  0  0  0  0  0  0
   30.4125   38.0070   64.1056 H   0  0  0  0  0  0  0  0  0  0  0  0
   33.1067   37.4134   59.4807 H   0  0  0  0  0  0  0  0  0  0  0  0
   33.0188   34.7867   57.1038 H   0  0  0  0  0  0  0  0  0  0  0  0
   33.6614   35.0007   54.7380 H   0  0  0  0  0  0  0  0  0  0  0  0
   34.1199   37.2208   53.7802 H   0  0  0  0  0  0  0  0  0  0  0  0
   33.9597   39.2316   55.1898 H   0  0  0  0  0  0  0  0  0  0  0  0
  1  2  1  0  0  0  0
  1 21  1  0  0  0  0
  1 22  1  0  0  0  0
  1 23  1  0  0  0  0
  2 10  2  0  0  0  0
  2  3  1  0  0  0  0
  3  4  2  0  0  0  0
  3 24  1  0  0  0  0
  4  5  1  0  0  0  0
  4  6  1  0  0  0  0
  5 25  1  0  0  0  0
  5 26  1  0  0  0  0
  5 27  1  0  0  0  0
  6  7  1  0  0  0  0
  6  8  1  0  0  0  0
  7 28  1  0  0  0  0
  7 29  1  0  0  0  0
  7 30  1  0  0  0  0
  8  9  2  0  0  0  0
  8 10  1  0  0  0  0
 10 11  1  0  0  0  0
 11 12  2  0  0  0  0
 11 13  1  0  0  0  0
 13 14  1  0  0  0  0
 13 31  1  0  0  0  0
 14 19  2  0  0  0  0
 14 15  1  0  0  0  0
 15 16  2  0  0  0  0
 15 32  1  0  0  0  0
 16 17  1  0  0  0  0
 16 33  1  0  0  0  0
 17 18  2  0  0  0  0
 17 34  1  0  0  0  0
 18 19  1  0  0  0  0
 18 35  1  0  0  0  0
 19 20  1  0  0  0  0
M  END
$$$$
