ZINC000000029528      none
 OpenBabel11202420163D

 29 29  0  0  0  0  0  0  0  0999 V2000
   35.4884   40.9453   52.5259 C   0  0  0  0  0  0  0  0  0  0  0  0
   34.9743   40.4869   53.7779 O   0  0  0  0  0  0  0  0  0  0  0  0
   34.6667   39.1685   53.8722 C   0  0  0  0  0  0  0  0  0  0  0  0
   34.1628   38.6577   55.0626 C   0  0  0  0  0  0  0  0  0  0  0  0
   33.8554   37.3194   55.1643 C   0  0  0  0  0  0  0  0  0  0  0  0
   34.0399   36.4766   54.0650 C   0  0  0  0  0  0  0  0  0  0  0  0
   33.7058   35.0425   54.1677 C   0  0  0  0  0  0  0  0  0  0  0  0
   32.5884   34.6567   53.8831 O   0  0  0  0  0  0  0  0  0  0  0  0
   34.6393   34.1608   54.5770 N   0  0  0  0  0  0  0  0  0  0  0  0
   34.3077   32.7375   54.6790 C   0  0  0  0  0  0  0  0  0  0  0  0
   34.6077   32.0471   53.3470 C   0  0  0  0  0  0  0  0  0  0  0  0
   35.1468   32.0964   55.7862 C   0  0  0  0  0  0  0  0  0  0  0  0
   34.5467   36.9940   52.8701 C   0  0  0  0  0  0  0  0  0  0  0  0
   34.8570   38.3324   52.7782 C   0  0  0  0  0  0  0  0  0  0  0  0
   34.7548   40.7588   51.7416 H   0  0  0  0  0  0  0  0  0  0  0  0
   35.6923   42.0143   52.5861 H   0  0  0  0  0  0  0  0  0  0  0  0
   36.4107   40.4122   52.2947 H   0  0  0  0  0  0  0  0  0  0  0  0
   34.0164   39.3106   55.9104 H   0  0  0  0  0  0  0  0  0  0  0  0
   33.4683   36.9223   56.0910 H   0  0  0  0  0  0  0  0  0  0  0  0
   35.5307   34.4686   54.8041 H   0  0  0  0  0  0  0  0  0  0  0  0
   33.2493   32.6271   54.9152 H   0  0  0  0  0  0  0  0  0  0  0  0
   35.6661   32.1576   53.1109 H   0  0  0  0  0  0  0  0  0  0  0  0
   34.3610   30.9881   53.4230 H   0  0  0  0  0  0  0  0  0  0  0  0
   34.0100   32.5039   52.5583 H   0  0  0  0  0  0  0  0  0  0  0  0
   36.2052   32.2068   55.5500 H   0  0  0  0  0  0  0  0  0  0  0  0
   34.9330   32.5882   56.7351 H   0  0  0  0  0  0  0  0  0  0  0  0
   34.9000   31.0374   55.8620 H   0  0  0  0  0  0  0  0  0  0  0  0
   34.6951   36.3449   52.0197 H   0  0  0  0  0  0  0  0  0  0  0  0
   35.2491   38.7330   51.8551 H   0  0  0  0  0  0  0  0  0  0  0  0
  1  2  1  0  0  0  0
  1 15  1  0  0  0  0
  1 16  1  0  0  0  0
  1 17  1  0  0  0  0
  2  3  1  0  0  0  0
  3 14  2  0  0  0  0
  3  4  1  0  0  0  0
  4  5  2  0  0  0  0
  4 18  1  0  0  0  0
  5  6  1  0  0  0  0
  5 19  1  0  0  0  0
  6  7  1  0  0  0  0
  6 13  2  0  0  0  0
  7  8  2  0  0  0  0
  7  9  1  0  0  0  0
  9 10  1  0  0  0  0
  9 20  1  0  0  0  0
 10 11  1  0  0  0  0
 10 12  1  0  0  0  0
 10 21  1  0  0  0  0
 11 22  1  0  0  0  0
 11 23  1  0  0  0  0
 11 24  1  0  0  0  0
 12 25  1  0  0  0  0
 12 26  1  0  0  0  0
 12 27  1  0  0  0  0
 13 14  1  0  0  0  0
 13 28  1  0  0  0  0
 14 29  1  0  0  0  0
M  END
$$$$
