ZINC000000030394      none
 OpenBabel11202420163D

 32 32  0  0  0  0  0  0  0  0999 V2000
   29.2194   34.9549   65.5247 C   0  0  0  0  0  0  0  0  0  0  0  0
   30.3665   35.9184   65.2137 C   0  0  0  0  0  0  0  0  0  0  0  0
   31.3075   35.9965   66.4175 C   0  0  0  0  0  0  0  0  0  0  0  0
   31.1399   35.4138   63.9938 C   0  0  0  0  0  0  0  0  0  0  0  0
   32.2870   36.3774   63.6828 C   0  0  0  0  0  0  0  0  0  0  0  0
   31.7437   37.7084   63.4004 N   0  0  0  0  0  0  0  0  0  0  0  0
   30.6892   37.9223   62.1416 S   0  0  0  0  0  0  0  0  0  0  0  0
   29.6400   36.9832   62.3330 O   0  0  0  0  0  0  0  0  0  0  0  0
   30.4696   39.3222   62.0355 O   0  0  0  0  0  0  0  0  0  0  0  0
   31.5284   37.4375   60.6701 C   0  0  0  0  0  0  0  0  0  0  0  0
   32.2502   38.3693   59.9477 C   0  0  0  0  0  0  0  0  0  0  0  0
   32.9136   37.9889   58.7965 C   0  0  0  0  0  0  0  0  0  0  0  0
   32.8453   36.6765   58.3604 C   0  0  0  0  0  0  0  0  0  0  0  0
   33.4880   36.3051   57.2315 F   0  0  0  0  0  0  0  0  0  0  0  0
   32.1175   35.7454   59.0816 C   0  0  0  0  0  0  0  0  0  0  0  0
   31.4599   36.1267   60.2358 C   0  0  0  0  0  0  0  0  0  0  0  0
   28.5490   34.8993   64.6670 H   0  0  0  0  0  0  0  0  0  0  0  0
   29.6235   33.9646   65.7347 H   0  0  0  0  0  0  0  0  0  0  0  0
   28.6684   35.3145   66.3937 H   0  0  0  0  0  0  0  0  0  0  0  0
   29.9624   36.9087   65.0036 H   0  0  0  0  0  0  0  0  0  0  0  0
   32.1248   36.6830   66.1960 H   0  0  0  0  0  0  0  0  0  0  0  0
   30.7566   36.3559   67.2866 H   0  0  0  0  0  0  0  0  0  0  0  0
   31.7116   35.0062   66.6276 H   0  0  0  0  0  0  0  0  0  0  0  0
   30.4695   35.3582   63.1361 H   0  0  0  0  0  0  0  0  0  0  0  0
   31.5440   34.4236   64.2039 H   0  0  0  0  0  0  0  0  0  0  0  0
   32.8380   36.0180   62.8138 H   0  0  0  0  0  0  0  0  0  0  0  0
   32.9573   36.4330   64.5405 H   0  0  0  0  0  0  0  0  0  0  0  0
   32.0048   38.4650   63.9483 H   0  0  0  0  0  0  0  0  0  0  0  0
   32.2991   39.3939   60.2853 H   0  0  0  0  0  0  0  0  0  0  0  0
   33.4807   38.7162   58.2345 H   0  0  0  0  0  0  0  0  0  0  0  0
   32.0632   34.7217   58.7421 H   0  0  0  0  0  0  0  0  0  0  0  0
   30.8922   35.4006   60.7986 H   0  0  0  0  0  0  0  0  0  0  0  0
  1  2  1  0  0  0  0
  1 17  1  0  0  0  0
  1 18  1  0  0  0  0
  1 19  1  0  0  0  0
  2  3  1  0  0  0  0
  2  4  1  0  0  0  0
  2 20  1  0  0  0  0
  3 21  1  0  0  0  0
  3 22  1  0  0  0  0
  3 23  1  0  0  0  0
  4  5  1  0  0  0  0
  4 24  1  0  0  0  0
  4 25  1  0  0  0  0
  5  6  1  0  0  0  0
  5 26  1  0  0  0  0
  5 27  1  0  0  0  0
  6  7  1  0  0  0  0
  6 28  1  0  0  0  0
  7  8  2  0  0  0  0
  7  9  2  0  0  0  0
  7 10  1  0  0  0  0
 10 16  2  0  0  0  0
 10 11  1  0  0  0  0
 11 12  2  0  0  0  0
 11 29  1  0  0  0  0
 12 13  1  0  0  0  0
 12 30  1  0  0  0  0
 13 14  1  0  0  0  0
 13 15  2  0  0  0  0
 15 16  1  0  0  0  0
 15 31  1  0  0  0  0
 16 32  1  0  0  0  0
M  END
$$$$
