ZINC000000009967      none
 OpenBabel11202420153D

 24 25  0  0  0  0  0  0  0  0999 V2000
   28.9505   36.1800   64.9291 N   0  0  0  0  0  0  0  0  0  0  0  0
   29.6365   36.3371   63.7313 C   0  0  0  0  0  0  0  0  0  0  0  0
   28.9299   36.4872   62.5404 C   0  0  0  0  0  0  0  0  0  0  0  0
   29.5756   36.6363   61.3999 N   0  0  0  0  0  0  0  0  0  0  0  0
   30.9045   36.6443   61.3831 C   0  0  0  0  0  0  0  0  0  0  0  0
   31.6298   36.8114   60.1017 C   0  0  0  0  0  0  0  0  0  0  0  0
   31.9666   38.0866   59.6494 C   0  0  0  0  0  0  0  0  0  0  0  0
   32.6421   38.2368   58.4544 C   0  0  0  0  0  0  0  0  0  0  0  0
   33.0614   39.8240   57.8901 Cl  0  0  0  0  0  0  0  0  0  0  0  0
   32.9853   37.1242   57.7050 C   0  0  0  0  0  0  0  0  0  0  0  0
   32.6540   35.8559   58.1484 C   0  0  0  0  0  0  0  0  0  0  0  0
   33.0881   34.4664   57.2026 Cl  0  0  0  0  0  0  0  0  0  0  0  0
   31.9777   35.6935   59.3432 C   0  0  0  0  0  0  0  0  0  0  0  0
   31.5688   34.1016   59.9021 Cl  0  0  0  0  0  0  0  0  0  0  0  0
   31.6189   36.4886   62.5797 C   0  0  0  0  0  0  0  0  0  0  0  0
   33.0065   36.4907   62.5673 N   0  0  0  0  0  0  0  0  0  0  0  0
   30.9642   36.3434   63.7240 N   0  0  0  0  0  0  0  0  0  0  0  0
   27.9806   36.1749   64.9355 H   0  0  0  0  0  0  0  0  0  0  0  0
   29.4415   36.0753   65.7591 H   0  0  0  0  0  0  0  0  0  0  0  0
   27.8501   36.4812   62.5507 H   0  0  0  0  0  0  0  0  0  0  0  0
   31.6993   38.9554   60.2325 H   0  0  0  0  0  0  0  0  0  0  0  0
   33.5136   37.2468   56.7711 H   0  0  0  0  0  0  0  0  0  0  0  0
   33.4839   36.4834   61.7230 H   0  0  0  0  0  0  0  0  0  0  0  0
   33.4991   36.4998   63.4029 H   0  0  0  0  0  0  0  0  0  0  0  0
  1  2  1  0  0  0  0
  1 18  1  0  0  0  0
  1 19  1  0  0  0  0
  2 17  2  0  0  0  0
  2  3  1  0  0  0  0
  3  4  2  0  0  0  0
  3 20  1  0  0  0  0
  4  5  1  0  0  0  0
  5  6  1  0  0  0  0
  5 15  2  0  0  0  0
  6 13  2  0  0  0  0
  6  7  1  0  0  0  0
  7  8  2  0  0  0  0
  7 21  1  0  0  0  0
  8  9  1  0  0  0  0
  8 10  1  0  0  0  0
 10 11  2  0  0  0  0
 10 22  1  0  0  0  0
 11 12  1  0  0  0  0
 11 13  1  0  0  0  0
 13 14  1  0  0  0  0
 15 16  1  0  0  0  0
 15 17  1  0  0  0  0
 16 23  1  0  0  0  0
 16 24  1  0  0  0  0
M  END
$$$$
