ZINC000000029449      none
 OpenBabel11202420163D

 34 34  0  0  0  0  0  0  0  0999 V2000
   33.4857   39.6485   58.0266 C   0  0  0  0  0  0  0  0  0  0  0  0
   32.7402   38.5455   58.7327 C   0  0  0  0  0  0  0  0  0  0  0  0
   32.0525   38.8141   59.9013 C   0  0  0  0  0  0  0  0  0  0  0  0
   31.3681   37.8025   60.5487 C   0  0  0  0  0  0  0  0  0  0  0  0
   30.6187   38.0952   61.8230 C   0  0  0  0  0  0  0  0  0  0  0  0
   31.3730   36.5218   60.0284 C   0  0  0  0  0  0  0  0  0  0  0  0
   30.5012   35.2321   60.8540 S   0  0  0  0  0  0  0  0  0  0  0  0
   29.1380   35.6311   60.8942 O   0  0  0  0  0  0  0  0  0  0  0  0
   30.9374   34.0136   60.2674 O   0  0  0  0  0  0  0  0  0  0  0  0
   31.0287   35.2106   62.4235 N   0  0  0  0  0  0  0  0  0  0  0  0
   32.4443   34.9734   62.7174 C   0  0  0  0  0  0  0  0  0  0  0  0
   32.9958   36.1307   63.4408 C   0  0  0  0  0  0  0  0  0  0  0  0
   33.4215   37.0237   63.9990 N   0  0  0  0  0  0  0  0  0  0  0  0
   30.0799   35.4288   63.5182 C   0  0  0  0  0  0  0  0  0  0  0  0
   29.5204   34.1366   63.9474 C   0  0  0  0  0  0  0  0  0  0  0  0
   29.0885   33.1395   64.2786 N   0  0  0  0  0  0  0  0  0  0  0  0
   32.0596   36.2534   58.8590 C   0  0  0  0  0  0  0  0  0  0  0  0
   32.0629   34.8578   58.2905 C   0  0  0  0  0  0  0  0  0  0  0  0
   32.7435   37.2652   58.2114 C   0  0  0  0  0  0  0  0  0  0  0  0
   34.5079   39.6946   58.4026 H   0  0  0  0  0  0  0  0  0  0  0  0
   33.5015   39.4486   56.9553 H   0  0  0  0  0  0  0  0  0  0  0  0
   32.9874   40.6001   58.2114 H   0  0  0  0  0  0  0  0  0  0  0  0
   32.0535   39.8134   60.3110 H   0  0  0  0  0  0  0  0  0  0  0  0
   29.5679   38.2721   61.5940 H   0  0  0  0  0  0  0  0  0  0  0  0
   30.7052   37.2444   62.4989 H   0  0  0  0  0  0  0  0  0  0  0  0
   31.0413   38.9808   62.2977 H   0  0  0  0  0  0  0  0  0  0  0  0
   32.5427   34.0793   63.3331 H   0  0  0  0  0  0  0  0  0  0  0  0
   32.9905   34.8340   61.7845 H   0  0  0  0  0  0  0  0  0  0  0  0
   30.5942   35.8983   64.3567 H   0  0  0  0  0  0  0  0  0  0  0  0
   29.2740   36.0783   63.1767 H   0  0  0  0  0  0  0  0  0  0  0  0
   32.8057   34.2545   58.8125 H   0  0  0  0  0  0  0  0  0  0  0  0
   31.0769   34.4111   58.4184 H   0  0  0  0  0  0  0  0  0  0  0  0
   32.3085   34.8983   57.2293 H   0  0  0  0  0  0  0  0  0  0  0  0
   33.2803   37.0555   57.2980 H   0  0  0  0  0  0  0  0  0  0  0  0
  1  2  1  0  0  0  0
  1 20  1  0  0  0  0
  1 21  1  0  0  0  0
  1 22  1  0  0  0  0
  2 19  2  0  0  0  0
  2  3  1  0  0  0  0
  3  4  2  0  0  0  0
  3 23  1  0  0  0  0
  4  5  1  0  0  0  0
  4  6  1  0  0  0  0
  5 24  1  0  0  0  0
  5 25  1  0  0  0  0
  5 26  1  0  0  0  0
  6  7  1  0  0  0  0
  6 17  2  0  0  0  0
  7  8  2  0  0  0  0
  7  9  2  0  0  0  0
  7 10  1  0  0  0  0
 10 11  1  0  0  0  0
 10 14  1  0  0  0  0
 11 12  1  0  0  0  0
 11 27  1  0  0  0  0
 11 28  1  0  0  0  0
 12 13  3  0  0  0  0
 14 15  1  0  0  0  0
 14 29  1  0  0  0  0
 14 30  1  0  0  0  0
 15 16  3  0  0  0  0
 17 18  1  0  0  0  0
 17 19  1  0  0  0  0
 18 31  1  0  0  0  0
 18 32  1  0  0  0  0
 18 33  1  0  0  0  0
 19 34  1  0  0  0  0
M  END
$$$$
