ZINC000000030967      none
 OpenBabel11202420163D

 38 39  0  0  0  0  0  0  0  0999 V2000
   32.9547   38.8847   68.1185 C   0  0  0  0  0  0  0  0  0  0  0  0
   32.5085   38.2914   66.8706 O   0  0  0  0  0  0  0  0  0  0  0  0
   32.7061   36.9725   66.7180 C   0  0  0  0  0  0  0  0  0  0  0  0
   33.2343   36.3349   67.5982 O   0  0  0  0  0  0  0  0  0  0  0  0
   32.2691   36.2868   65.4492 C   0  0  0  0  0  0  0  0  0  0  0  0
   32.9976   36.9097   64.2562 C   0  0  0  0  0  0  0  0  0  0  0  0
   32.5768   36.1877   62.9723 C   0  0  0  0  0  0  0  0  0  0  0  0
   31.1116   36.2215   62.8694 N   0  0  0  0  0  0  0  0  0  0  0  0
   30.5119   36.6949   61.7590 C   0  0  0  0  0  0  0  0  0  0  0  0
   29.2988   36.7176   61.6861 O   0  0  0  0  0  0  0  0  0  0  0  0
   31.3298   37.1868   60.6298 C   0  0  0  0  0  0  0  0  0  0  0  0
   31.7091   38.5289   60.5713 C   0  0  0  0  0  0  0  0  0  0  0  0
   32.4718   38.9815   59.5149 C   0  0  0  0  0  0  0  0  0  0  0  0
   32.8613   38.1081   58.5147 C   0  0  0  0  0  0  0  0  0  0  0  0
   32.4884   36.7769   58.5663 C   0  0  0  0  0  0  0  0  0  0  0  0
   32.9170   35.8330   57.4726 C   0  0  0  0  0  0  0  0  0  0  0  0
   31.7255   36.3114   59.6175 C   0  0  0  0  0  0  0  0  0  0  0  0
   30.3124   35.7349   64.0022 C   0  0  0  0  0  0  0  0  0  0  0  0
   30.7586   36.4570   65.2723 C   0  0  0  0  0  0  0  0  0  0  0  0
   32.4343   38.4125   68.9518 H   0  0  0  0  0  0  0  0  0  0  0  0
   34.0286   38.7348   68.2288 H   0  0  0  0  0  0  0  0  0  0  0  0
   32.7357   39.9525   68.1118 H   0  0  0  0  0  0  0  0  0  0  0  0
   32.5105   35.2255   65.5083 H   0  0  0  0  0  0  0  0  0  0  0  0
   34.0741   36.8088   64.3941 H   0  0  0  0  0  0  0  0  0  0  0  0
   32.7373   37.9656   64.1818 H   0  0  0  0  0  0  0  0  0  0  0  0
   32.9169   35.1527   63.0070 H   0  0  0  0  0  0  0  0  0  0  0  0
   33.0154   36.6877   62.1088 H   0  0  0  0  0  0  0  0  0  0  0  0
   31.4058   39.2116   61.3514 H   0  0  0  0  0  0  0  0  0  0  0  0
   32.7659   40.0196   59.4684 H   0  0  0  0  0  0  0  0  0  0  0  0
   33.4587   38.4674   57.6898 H   0  0  0  0  0  0  0  0  0  0  0  0
   32.1641   35.8242   56.6845 H   0  0  0  0  0  0  0  0  0  0  0  0
   33.8705   36.1634   57.0605 H   0  0  0  0  0  0  0  0  0  0  0  0
   33.0265   34.8286   57.8816 H   0  0  0  0  0  0  0  0  0  0  0  0
   31.4390   35.2709   59.6593 H   0  0  0  0  0  0  0  0  0  0  0  0
   29.2572   35.9388   63.8193 H   0  0  0  0  0  0  0  0  0  0  0  0
   30.4640   34.6624   64.1226 H   0  0  0  0  0  0  0  0  0  0  0  0
   30.2414   36.0339   66.1335 H   0  0  0  0  0  0  0  0  0  0  0  0
   30.5193   37.5172   65.1883 H   0  0  0  0  0  0  0  0  0  0  0  0
  1  2  1  0  0  0  0
  1 20  1  0  0  0  0
  1 21  1  0  0  0  0
  1 22  1  0  0  0  0
  2  3  1  0  0  0  0
  3  4  2  0  0  0  0
  3  5  1  0  0  0  0
  5 19  1  0  0  0  0
  5  6  1  0  0  0  0
  5 23  1  0  0  0  0
  6  7  1  0  0  0  0
  6 24  1  0  0  0  0
  6 25  1  0  0  0  0
  7  8  1  0  0  0  0
  7 26  1  0  0  0  0
  7 27  1  0  0  0  0
  8  9  1  0  0  0  0
  8 18  1  0  0  0  0
  9 10  2  0  0  0  0
  9 11  1  0  0  0  0
 11 17  2  0  0  0  0
 11 12  1  0  0  0  0
 12 13  2  0  0  0  0
 12 28  1  0  0  0  0
 13 14  1  0  0  0  0
 13 29  1  0  0  0  0
 14 15  2  0  0  0  0
 14 30  1  0  0  0  0
 15 16  1  0  0  0  0
 15 17  1  0  0  0  0
 16 31  1  0  0  0  0
 16 32  1  0  0  0  0
 16 33  1  0  0  0  0
 17 34  1  0  0  0  0
 18 19  1  0  0  0  0
 18 35  1  0  0  0  0
 18 36  1  0  0  0  0
 19 37  1  0  0  0  0
 19 38  1  0  0  0  0
M  END
$$$$
