ZINC000000042904      none
 OpenBabel11202420153D

 43 45  0  0  1  0  0  0  0  0999 V2000
   31.2623   37.0807   67.1748 C   0  0  0  0  0  0  0  0  0  0  0  0
   31.3277   37.3101   65.6635 C   0  0  0  0  0  0  0  0  0  0  0  0
   32.1445   38.5700   65.3699 C   0  0  0  0  0  0  0  0  0  0  0  0
   30.0024   37.4675   65.1431 O   0  0  0  0  0  0  0  0  0  0  0  0
   29.7732   36.4042   64.1997 C   0  0  1  0  0  0  0  0  0  0  0  0
   28.7545   36.0174   64.2292 H   0  0  0  0  0  0  0  0  0  0  0  0
   30.1862   36.8514   62.8947 O   0  0  0  0  0  0  0  0  0  0  0  0
   30.7065   35.7181   62.1852 C   0  0  1  0  0  0  0  0  0  0  0  0
   29.9202   35.2629   61.5830 H   0  0  0  0  0  0  0  0  0  0  0  0
   31.8635   36.1553   61.2845 C   0  0  2  0  0  0  0  0  0  0  0  0
   32.2538   35.2900   60.7488 H   0  0  0  0  0  0  0  0  0  0  0  0
   32.9000   36.7276   62.0845 O   0  0  0  0  0  0  0  0  0  0  0  0
   31.3627   37.1942   60.2791 C   0  0  0  0  0  0  0  0  0  0  0  0
   32.4607   37.6090   59.4243 O   0  0  0  0  0  0  0  0  0  0  0  0
   32.6533   36.9058   58.2916 C   0  0  0  0  0  0  0  0  0  0  0  0
   32.3565   35.7287   58.2495 O   0  0  0  0  0  0  0  0  0  0  0  0
   33.2254   37.5663   57.1005 C   0  0  0  0  0  0  0  0  0  0  0  0
   33.4268   36.8403   55.9248 C   0  0  0  0  0  0  0  0  0  0  0  0
   33.9619   37.4631   54.8165 C   0  0  0  0  0  0  0  0  0  0  0  0
   34.2989   38.8042   54.8678 C   0  0  0  0  0  0  0  0  0  0  0  0
   34.1020   39.5296   56.0295 C   0  0  0  0  0  0  0  0  0  0  0  0
   33.5678   38.9192   57.1453 C   0  0  0  0  0  0  0  0  0  0  0  0
   31.2118   34.7109   63.2337 C   0  0  1  0  0  0  0  0  0  0  0  0
   30.7075   33.7522   63.1132 H   0  0  0  0  0  0  0  0  0  0  0  0
   32.6269   34.5453   63.1235 O   0  0  0  0  0  0  0  0  0  0  0  0
   30.8490   35.3447   64.5928 C   0  0  1  0  0  0  0  0  0  0  0  0
   30.5249   34.6203   65.3401 H   0  0  0  0  0  0  0  0  0  0  0  0
   31.9435   36.1775   65.0299 O   0  0  0  0  0  0  0  0  0  0  0  0
   32.2712   36.9511   67.5666 H   0  0  0  0  0  0  0  0  0  0  0  0
   30.7946   37.9415   67.6530 H   0  0  0  0  0  0  0  0  0  0  0  0
   30.6745   36.1865   67.3815 H   0  0  0  0  0  0  0  0  0  0  0  0
   32.1840   38.7347   64.2931 H   0  0  0  0  0  0  0  0  0  0  0  0
   31.6751   39.4277   65.8517 H   0  0  0  0  0  0  0  0  0  0  0  0
   33.1562   38.4452   65.7558 H   0  0  0  0  0  0  0  0  0  0  0  0
   33.6674   37.0277   61.5781 H   0  0  0  0  0  0  0  0  0  0  0  0
   30.9723   38.0595   60.8148 H   0  0  0  0  0  0  0  0  0  0  0  0
   30.5721   36.7576   59.6688 H   0  0  0  0  0  0  0  0  0  0  0  0
   33.1645   35.7935   55.8836 H   0  0  0  0  0  0  0  0  0  0  0  0
   34.1185   36.9028   53.9066 H   0  0  0  0  0  0  0  0  0  0  0  0
   34.7217   39.2859   53.9985 H   0  0  0  0  0  0  0  0  0  0  0  0
   34.3671   40.5760   56.0628 H   0  0  0  0  0  0  0  0  0  0  0  0
   33.4143   39.4866   58.0513 H   0  0  0  0  0  0  0  0  0  0  0  0
   32.9168   34.1969   62.2694 H   0  0  0  0  0  0  0  0  0  0  0  0
  1  2  1  0  0  0  0
  1 29  1  0  0  0  0
  1 30  1  0  0  0  0
  1 31  1  0  0  0  0
  2 28  1  0  0  0  0
  2  3  1  0  0  0  0
  2  4  1  0  0  0  0
  3 32  1  0  0  0  0
  3 33  1  0  0  0  0
  3 34  1  0  0  0  0
  4  5  1  0  0  0  0
  5  6  1  1  0  0  0
  5 26  1  0  0  0  0
  5  7  1  0  0  0  0
  7  8  1  0  0  0  0
  8  9  1  6  0  0  0
  8 10  1  0  0  0  0
  8 23  1  0  0  0  0
 10 11  1  6  0  0  0
 10 12  1  0  0  0  0
 10 13  1  0  0  0  0
 12 35  1  0  0  0  0
 13 14  1  0  0  0  0
 13 36  1  0  0  0  0
 13 37  1  0  0  0  0
 14 15  1  0  0  0  0
 15 16  2  0  0  0  0
 15 17  1  0  0  0  0
 17 22  2  0  0  0  0
 17 18  1  0  0  0  0
 18 19  2  0  0  0  0
 18 38  1  0  0  0  0
 19 20  1  0  0  0  0
 19 39  1  0  0  0  0
 20 21  2  0  0  0  0
 20 40  1  0  0  0  0
 21 22  1  0  0  0  0
 21 41  1  0  0  0  0
 22 42  1  0  0  0  0
 23 24  1  6  0  0  0
 23 25  1  0  0  0  0
 23 26  1  0  0  0  0
 25 43  1  0  0  0  0
 26 27  1  1  0  0  0
 26 28  1  0  0  0  0
M  END
$$$$
