ZINC000000033070      none
 OpenBabel11202420153D

 37 39  0  0  0  0  0  0  0  0999 V2000
   34.8383   37.7201   52.9803 C   0  0  0  0  0  0  0  0  0  0  0  0
   34.2628   38.1931   54.2266 O   0  0  0  0  0  0  0  0  0  0  0  0
   34.2297   37.3219   55.2545 C   0  0  0  0  0  0  0  0  0  0  0  0
   34.6696   36.1980   55.1130 O   0  0  0  0  0  0  0  0  0  0  0  0
   33.6599   37.7325   56.5500 C   0  0  0  0  0  0  0  0  0  0  0  0
   33.7288   39.0725   56.9576 C   0  0  0  0  0  0  0  0  0  0  0  0
   33.2063   39.4599   58.1482 C   0  0  0  0  0  0  0  0  0  0  0  0
   32.5821   38.5222   59.0040 C   0  0  0  0  0  0  0  0  0  0  0  0
   32.0160   38.7314   60.1988 N   0  0  0  0  0  0  0  0  0  0  0  0
   31.5033   37.7205   60.8142 C   0  0  0  0  0  0  0  0  0  0  0  0
   30.8885   37.7772   62.0525 N   0  0  0  0  0  0  0  0  0  0  0  0
   30.3846   36.6567   62.6067 C   0  0  0  0  0  0  0  0  0  0  0  0
   30.4704   35.5988   62.0202 O   0  0  0  0  0  0  0  0  0  0  0  0
   29.7150   36.7185   63.9554 C   0  0  0  0  0  0  0  0  0  0  0  0
   30.3142   37.7941   64.7493 N   0  0  0  0  0  0  0  0  0  0  0  0
   29.8524   39.0506   64.7323 C   0  0  0  0  0  0  0  0  0  0  0  0
   28.9105   39.4438   64.0782 O   0  0  0  0  0  0  0  0  0  0  0  0
   30.6905   39.9014   65.6615 C   0  0  0  0  0  0  0  0  0  0  0  0
   31.7337   38.9105   66.2167 C   0  0  0  0  0  0  0  0  0  0  0  0
   31.3721   37.6026   65.5472 C   0  0  0  0  0  0  0  0  0  0  0  0
   31.9485   36.5484   65.7081 O   0  0  0  0  0  0  0  0  0  0  0  0
   31.6905   36.2612   59.8511 S   0  0  0  0  0  0  0  0  0  0  0  0
   32.5140   37.1834   58.5954 C   0  0  0  0  0  0  0  0  0  0  0  0
   33.0493   36.7911   57.3767 C   0  0  0  0  0  0  0  0  0  0  0  0
   34.2696   36.8629   52.6196 H   0  0  0  0  0  0  0  0  0  0  0  0
   34.8032   38.5177   52.2382 H   0  0  0  0  0  0  0  0  0  0  0  0
   35.8741   37.4246   53.1473 H   0  0  0  0  0  0  0  0  0  0  0  0
   34.2019   39.8028   56.3178 H   0  0  0  0  0  0  0  0  0  0  0  0
   33.2679   40.4961   58.4462 H   0  0  0  0  0  0  0  0  0  0  0  0
   30.8199   38.6234   62.5217 H   0  0  0  0  0  0  0  0  0  0  0  0
   29.8492   35.7678   64.4715 H   0  0  0  0  0  0  0  0  0  0  0  0
   28.6506   36.9134   63.8239 H   0  0  0  0  0  0  0  0  0  0  0  0
   30.0811   40.3089   66.4682 H   0  0  0  0  0  0  0  0  0  0  0  0
   31.1793   40.7022   65.1066 H   0  0  0  0  0  0  0  0  0  0  0  0
   31.6434   38.8249   67.2995 H   0  0  0  0  0  0  0  0  0  0  0  0
   32.7416   39.2182   65.9380 H   0  0  0  0  0  0  0  0  0  0  0  0
   32.9923   35.7575   57.0688 H   0  0  0  0  0  0  0  0  0  0  0  0
  1  2  1  0  0  0  0
  1 25  1  0  0  0  0
  1 26  1  0  0  0  0
  1 27  1  0  0  0  0
  2  3  1  0  0  0  0
  3  4  2  0  0  0  0
  3  5  1  0  0  0  0
  5 24  2  0  0  0  0
  5  6  1  0  0  0  0
  6  7  2  0  0  0  0
  6 28  1  0  0  0  0
  7  8  1  0  0  0  0
  7 29  1  0  0  0  0
  8 23  2  0  0  0  0
  8  9  1  0  0  0  0
  9 10  2  0  0  0  0
 10 11  1  0  0  0  0
 10 22  1  0  0  0  0
 11 12  1  0  0  0  0
 11 30  1  0  0  0  0
 12 13  2  0  0  0  0
 12 14  1  0  0  0  0
 14 15  1  0  0  0  0
 14 31  1  0  0  0  0
 14 32  1  0  0  0  0
 15 20  1  0  0  0  0
 15 16  1  0  0  0  0
 16 17  2  0  0  0  0
 16 18  1  0  0  0  0
 18 19  1  0  0  0  0
 18 33  1  0  0  0  0
 18 34  1  0  0  0  0
 19 20  1  0  0  0  0
 19 35  1  0  0  0  0
 19 36  1  0  0  0  0
 20 21  2  0  0  0  0
 22 23  1  0  0  0  0
 23 24  1  0  0  0  0
 24 37  1  0  0  0  0
M  END
$$$$
