ZINC000000030664      none
 OpenBabel11202420163D

 38 39  0  0  1  0  0  0  0  0999 V2000
   32.9713   35.3289   69.7006 C   0  0  0  0  0  0  0  0  0  0  0  0
   31.5294   34.8330   69.5740 C   0  0  0  0  0  0  0  0  0  0  0  0
   31.0988   34.9446   68.1918 O   0  0  0  0  0  0  0  0  0  0  0  0
   30.5187   36.0984   67.8255 C   0  0  0  0  0  0  0  0  0  0  0  0
   29.5058   36.4656   68.3723 O   0  0  0  0  0  0  0  0  0  0  0  0
   31.1309   36.9357   66.7323 C   0  0  1  0  0  0  0  0  0  0  0  0
   32.3974   36.2505   66.2140 C   0  0  0  0  0  0  0  0  0  0  0  0
   33.0359   37.1212   65.1272 C   0  0  0  0  0  0  0  0  0  0  0  0
   32.0314   37.3962   64.0909 N   0  0  0  0  0  0  0  0  0  0  0  0
   32.2891   37.1263   62.7959 C   0  0  0  0  0  0  0  0  0  0  0  0
   33.3587   36.6518   62.4765 O   0  0  0  0  0  0  0  0  0  0  0  0
   31.2486   37.4141   61.7445 C   0  0  0  0  0  0  0  0  0  0  0  0
   31.7820   37.0248   60.3899 C   0  0  0  0  0  0  0  0  0  0  0  0
   32.4615   37.8289   59.5709 C   0  0  0  0  0  0  0  0  0  0  0  0
   32.8519   37.2495   58.3759 C   0  0  0  0  0  0  0  0  0  0  0  0
   32.4848   35.9764   58.2222 C   0  0  0  0  0  0  0  0  0  0  0  0
   31.6044   35.4403   59.6473 S   0  0  0  0  0  0  0  0  0  0  0  0
   30.7428   37.9768   64.4924 C   0  0  0  0  0  0  0  0  0  0  0  0
   30.1280   37.0912   65.5870 C   0  0  0  0  0  0  0  0  0  0  0  0
   33.2945   35.2451   70.7382 H   0  0  0  0  0  0  0  0  0  0  0  0
   33.6205   34.7237   69.0678 H   0  0  0  0  0  0  0  0  0  0  0  0
   33.0261   36.3710   69.3859 H   0  0  0  0  0  0  0  0  0  0  0  0
   30.8803   35.4382   70.2068 H   0  0  0  0  0  0  0  0  0  0  0  0
   31.4746   33.7908   69.8886 H   0  0  0  0  0  0  0  0  0  0  0  0
   31.3858   37.9190   67.1277 H   0  0  0  0  0  0  0  0  0  0  0  0
   32.1396   35.2775   65.7959 H   0  0  0  0  0  0  0  0  0  0  0  0
   33.1022   36.1184   67.0350 H   0  0  0  0  0  0  0  0  0  0  0  0
   33.8812   36.5933   64.6859 H   0  0  0  0  0  0  0  0  0  0  0  0
   33.3783   38.0600   65.5626 H   0  0  0  0  0  0  0  0  0  0  0  0
   31.0115   38.4780   61.7496 H   0  0  0  0  0  0  0  0  0  0  0  0
   30.3472   36.8400   61.9588 H   0  0  0  0  0  0  0  0  0  0  0  0
   32.6896   38.8545   59.8211 H   0  0  0  0  0  0  0  0  0  0  0  0
   33.4076   37.7888   57.6230 H   0  0  0  0  0  0  0  0  0  0  0  0
   32.6975   35.3673   57.3560 H   0  0  0  0  0  0  0  0  0  0  0  0
   30.9001   38.9837   64.8787 H   0  0  0  0  0  0  0  0  0  0  0  0
   30.0746   38.0134   63.6320 H   0  0  0  0  0  0  0  0  0  0  0  0
   29.8914   36.1104   65.1747 H   0  0  0  0  0  0  0  0  0  0  0  0
   29.2169   37.5577   65.9620 H   0  0  0  0  0  0  0  0  0  0  0  0
  1  2  1  0  0  0  0
  1 20  1  0  0  0  0
  1 21  1  0  0  0  0
  1 22  1  0  0  0  0
  2  3  1  0  0  0  0
  2 23  1  0  0  0  0
  2 24  1  0  0  0  0
  3  4  1  0  0  0  0
  4  5  2  0  0  0  0
  4  6  1  0  0  0  0
  6 19  1  0  0  0  0
  6  7  1  0  0  0  0
  6 25  1  1  0  0  0
  7  8  1  0  0  0  0
  7 26  1  0  0  0  0
  7 27  1  0  0  0  0
  8  9  1  0  0  0  0
  8 28  1  0  0  0  0
  8 29  1  0  0  0  0
  9 10  1  0  0  0  0
  9 18  1  0  0  0  0
 10 11  2  0  0  0  0
 10 12  1  0  0  0  0
 12 13  1  0  0  0  0
 12 30  1  0  0  0  0
 12 31  1  0  0  0  0
 13 17  1  0  0  0  0
 13 14  2  0  0  0  0
 14 15  1  0  0  0  0
 14 32  1  0  0  0  0
 15 16  2  0  0  0  0
 15 33  1  0  0  0  0
 16 17  1  0  0  0  0
 16 34  1  0  0  0  0
 18 19  1  0  0  0  0
 18 35  1  0  0  0  0
 18 36  1  0  0  0  0
 19 37  1  0  0  0  0
 19 38  1  0  0  0  0
M  END
$$$$
