ZINC000000036916      none
 OpenBabel11202420153D

 37 39  0  0  1  0  0  0  0  0999 V2000
   30.2585   37.4761   65.0074 O   0  0  0  0  0  0  0  0  0  0  0  0
   31.4877   36.7487   64.9612 C   0  0  0  0  0  0  0  0  0  0  0  0
   31.4375   35.7349   63.8163 C   0  0  1  0  0  0  0  0  0  0  0  0
   30.8417   34.5112   64.2516 O   0  0  0  0  0  0  0  0  0  0  0  0
   30.6771   36.3185   62.5982 C   0  0  0  0  0  0  0  0  0  0  0  0
   31.2717   35.5161   61.4181 C   0  0  1  0  0  0  0  0  0  0  0  0
   30.6141   34.6883   61.1528 H   0  0  0  0  0  0  0  0  0  0  0  0
   31.4835   36.4162   60.2281 C   0  0  0  0  0  0  0  0  0  0  0  0
   31.9847   36.0413   59.0374 C   0  0  0  0  0  0  0  0  0  0  0  0
   32.0147   37.1969   58.2235 C   0  0  0  0  0  0  0  0  0  0  0  0
   31.5212   38.2069   58.9623 C   0  0  0  0  0  0  0  0  0  0  0  0
   31.2045   37.7290   60.1768 O   0  0  0  0  0  0  0  0  0  0  0  0
   32.5677   35.0038   61.9102 N   0  0  0  0  0  0  0  0  0  0  0  0
   32.7599   35.4995   63.2816 O   0  0  0  0  0  0  0  0  0  0  0  0
   32.6470   37.7203   64.7315 C   0  0  0  0  0  0  0  0  0  0  0  0
   32.6972   38.7342   65.8763 C   0  0  0  0  0  0  0  0  0  0  0  0
   32.9040   37.9976   67.2012 C   0  0  0  0  0  0  0  0  0  0  0  0
   31.7447   37.0259   67.4308 C   0  0  0  0  0  0  0  0  0  0  0  0
   31.6945   36.0120   66.2861 C   0  0  0  0  0  0  0  0  0  0  0  0
   30.2196   38.1383   65.7111 H   0  0  0  0  0  0  0  0  0  0  0  0
   31.3342   34.0612   64.9519 H   0  0  0  0  0  0  0  0  0  0  0  0
   30.8842   37.3827   62.4860 H   0  0  0  0  0  0  0  0  0  0  0  0
   29.6059   36.1387   62.6881 H   0  0  0  0  0  0  0  0  0  0  0  0
   32.3068   35.0489   58.7585 H   0  0  0  0  0  0  0  0  0  0  0  0
   32.3643   37.2566   57.2033 H   0  0  0  0  0  0  0  0  0  0  0  0
   31.4046   39.2297   58.6359 H   0  0  0  0  0  0  0  0  0  0  0  0
   32.5915   33.9954   61.8836 H   0  0  0  0  0  0  0  0  0  0  0  0
   33.5845   37.1655   64.6962 H   0  0  0  0  0  0  0  0  0  0  0  0
   32.4997   38.2452   63.7875 H   0  0  0  0  0  0  0  0  0  0  0  0
   31.7597   39.2890   65.9116 H   0  0  0  0  0  0  0  0  0  0  0  0
   33.5230   39.4264   65.7126 H   0  0  0  0  0  0  0  0  0  0  0  0
   32.9397   38.7198   68.0168 H   0  0  0  0  0  0  0  0  0  0  0  0
   33.8416   37.4427   67.1659 H   0  0  0  0  0  0  0  0  0  0  0  0
   30.8071   37.5807   67.4662 H   0  0  0  0  0  0  0  0  0  0  0  0
   31.8920   36.5010   68.3748 H   0  0  0  0  0  0  0  0  0  0  0  0
   30.8686   35.3198   66.4497 H   0  0  0  0  0  0  0  0  0  0  0  0
   32.6321   35.4573   66.2508 H   0  0  0  0  0  0  0  0  0  0  0  0
  1  2  1  0  0  0  0
  1 20  1  0  0  0  0
  2 19  1  0  0  0  0
  2  3  1  0  0  0  0
  2 15  1  0  0  0  0
  3 14  1  0  0  0  0
  3  4  1  1  0  0  0
  3  5  1  0  0  0  0
  4 21  1  0  0  0  0
  5  6  1  0  0  0  0
  5 22  1  0  0  0  0
  5 23  1  0  0  0  0
  6  7  1  6  0  0  0
  6  8  1  0  0  0  0
  6 13  1  0  0  0  0
  8 12  1  0  0  0  0
  8  9  2  0  0  0  0
  9 10  1  0  0  0  0
  9 24  1  0  0  0  0
 10 11  2  0  0  0  0
 10 25  1  0  0  0  0
 11 12  1  0  0  0  0
 11 26  1  0  0  0  0
 13 14  1  0  0  0  0
 13 27  1  0  0  0  0
 15 16  1  0  0  0  0
 15 28  1  0  0  0  0
 15 29  1  0  0  0  0
 16 17  1  0  0  0  0
 16 30  1  0  0  0  0
 16 31  1  0  0  0  0
 17 18  1  0  0  0  0
 17 32  1  0  0  0  0
 17 33  1  0  0  0  0
 18 19  1  0  0  0  0
 18 34  1  0  0  0  0
 18 35  1  0  0  0  0
 19 36  1  0  0  0  0
 19 37  1  0  0  0  0
M  END
$$$$
