ZINC000000030150      none
 OpenBabel11202420163D

 41 42  0  0  0  0  0  0  0  0999 V2000
   27.9416   33.5191   67.3789 C   0  0  0  0  0  0  0  0  0  0  0  0
   29.2435   32.8550   66.9261 C   0  0  0  0  0  0  0  0  0  0  0  0
   28.9443   31.4467   66.4082 C   0  0  0  0  0  0  0  0  0  0  0  0
   29.8507   33.6500   65.8559 N   0  0  0  0  0  0  0  0  0  0  0  0
   30.7213   34.6334   66.1581 C   0  0  0  0  0  0  0  0  0  0  0  0
   31.0022   34.8600   67.3159 O   0  0  0  0  0  0  0  0  0  0  0  0
   31.3460   35.4513   65.0572 C   0  0  0  0  0  0  0  0  0  0  0  0
   30.2476   36.1613   64.2631 C   0  0  0  0  0  0  0  0  0  0  0  0
   30.7835   36.5627   62.9130 C   0  0  0  0  0  0  0  0  0  0  0  0
   29.9346   36.6283   61.8240 C   0  0  0  0  0  0  0  0  0  0  0  0
   30.4252   37.0011   60.5866 C   0  0  0  0  0  0  0  0  0  0  0  0
   31.7668   37.2982   60.4360 C   0  0  0  0  0  0  0  0  0  0  0  0
   32.6168   37.2274   61.5238 C   0  0  0  0  0  0  0  0  0  0  0  0
   32.1252   36.8596   62.7623 C   0  0  0  0  0  0  0  0  0  0  0  0
   29.8010   37.3904   65.0120 C   0  0  0  0  0  0  0  0  0  0  0  0
   28.7621   37.3069   65.9201 C   0  0  0  0  0  0  0  0  0  0  0  0
   28.3555   38.4333   66.6106 C   0  0  0  0  0  0  0  0  0  0  0  0
   28.9809   39.6454   66.3852 C   0  0  0  0  0  0  0  0  0  0  0  0
   30.0163   39.7299   65.4733 C   0  0  0  0  0  0  0  0  0  0  0  0
   30.4263   38.6024   64.7866 C   0  0  0  0  0  0  0  0  0  0  0  0
   27.2528   33.5806   66.5363 H   0  0  0  0  0  0  0  0  0  0  0  0
   27.4897   32.9275   68.1752 H   0  0  0  0  0  0  0  0  0  0  0  0
   28.1547   34.5223   67.7478 H   0  0  0  0  0  0  0  0  0  0  0  0
   29.9322   32.7936   67.7687 H   0  0  0  0  0  0  0  0  0  0  0  0
   29.8718   30.9737   66.0856 H   0  0  0  0  0  0  0  0  0  0  0  0
   28.4925   30.8551   67.2044 H   0  0  0  0  0  0  0  0  0  0  0  0
   28.2556   31.5081   65.5656 H   0  0  0  0  0  0  0  0  0  0  0  0
   29.6261   33.4688   64.9297 H   0  0  0  0  0  0  0  0  0  0  0  0
   31.9090   34.7961   64.3926 H   0  0  0  0  0  0  0  0  0  0  0  0
   32.0173   36.1922   65.4911 H   0  0  0  0  0  0  0  0  0  0  0  0
   29.4008   35.4877   64.1322 H   0  0  0  0  0  0  0  0  0  0  0  0
   28.8872   36.3918   61.9408 H   0  0  0  0  0  0  0  0  0  0  0  0
   29.7611   37.0560   59.7366 H   0  0  0  0  0  0  0  0  0  0  0  0
   32.1510   37.5851   59.4682 H   0  0  0  0  0  0  0  0  0  0  0  0
   33.6650   37.4592   61.4059 H   0  0  0  0  0  0  0  0  0  0  0  0
   32.7893   36.8041   63.6121 H   0  0  0  0  0  0  0  0  0  0  0  0
   28.2705   36.3608   66.0929 H   0  0  0  0  0  0  0  0  0  0  0  0
   27.5463   38.3674   67.3228 H   0  0  0  0  0  0  0  0  0  0  0  0
   28.6603   40.5264   66.9215 H   0  0  0  0  0  0  0  0  0  0  0  0
   30.5046   40.6769   65.2970 H   0  0  0  0  0  0  0  0  0  0  0  0
   31.2350   38.6685   64.0739 H   0  0  0  0  0  0  0  0  0  0  0  0
  1  2  1  0  0  0  0
  1 21  1  0  0  0  0
  1 22  1  0  0  0  0
  1 23  1  0  0  0  0
  2  3  1  0  0  0  0
  2  4  1  0  0  0  0
  2 24  1  0  0  0  0
  3 25  1  0  0  0  0
  3 26  1  0  0  0  0
  3 27  1  0  0  0  0
  4  5  1  0  0  0  0
  4 28  1  0  0  0  0
  5  6  2  0  0  0  0
  5  7  1  0  0  0  0
  7  8  1  0  0  0  0
  7 29  1  0  0  0  0
  7 30  1  0  0  0  0
  8  9  1  0  0  0  0
  8 15  1  0  0  0  0
  8 31  1  0  0  0  0
  9 14  2  0  0  0  0
  9 10  1  0  0  0  0
 10 11  2  0  0  0  0
 10 32  1  0  0  0  0
 11 12  1  0  0  0  0
 11 33  1  0  0  0  0
 12 13  2  0  0  0  0
 12 34  1  0  0  0  0
 13 14  1  0  0  0  0
 13 35  1  0  0  0  0
 14 36  1  0  0  0  0
 15 20  2  0  0  0  0
 15 16  1  0  0  0  0
 16 17  2  0  0  0  0
 16 37  1  0  0  0  0
 17 18  1  0  0  0  0
 17 38  1  0  0  0  0
 18 19  2  0  0  0  0
 18 39  1  0  0  0  0
 19 20  1  0  0  0  0
 19 40  1  0  0  0  0
 20 41  1  0  0  0  0
M  END
$$$$
