ZINC000000015252      none
 OpenBabel11202420153D

 32 34  0  0  0  0  0  0  0  0999 V2000
   31.3620   35.9191   65.5105 C   0  0  0  0  0  0  0  0  0  0  0  0
   31.2787   36.0216   64.0094 C   0  0  0  0  0  0  0  0  0  0  0  0
   31.3015   37.2616   63.3989 C   0  0  0  0  0  0  0  0  0  0  0  0
   31.2309   37.3553   62.0215 C   0  0  0  0  0  0  0  0  0  0  0  0
   31.1318   36.2092   61.2550 C   0  0  0  0  0  0  0  0  0  0  0  0
   31.0546   36.3114   59.7534 C   0  0  0  0  0  0  0  0  0  0  0  0
   32.3738   36.2768   59.2052 O   0  0  0  0  0  0  0  0  0  0  0  0
   32.7676   37.3525   58.4811 C   0  0  0  0  0  0  0  0  0  0  0  0
   32.8096   38.5608   59.0311 N   0  0  0  0  0  0  0  0  0  0  0  0
   33.1939   39.6197   58.3294 C   0  0  0  0  0  0  0  0  0  0  0  0
   33.2205   40.8589   58.9493 N   0  0  0  0  0  0  0  0  0  0  0  0
   33.5523   39.5338   57.0605 N   0  0  0  0  0  0  0  0  0  0  0  0
   33.5386   38.3548   56.4309 C   0  0  0  0  0  0  0  0  0  0  0  0
   33.8366   37.9499   55.1820 N   0  0  0  0  0  0  0  0  0  0  0  0
   33.6498   36.6634   55.0779 C   0  0  0  0  0  0  0  0  0  0  0  0
   33.2191   36.1589   56.2557 N   0  0  0  0  0  0  0  0  0  0  0  0
   33.0077   35.2307   56.4419 H   0  0  0  0  0  0  0  0  0  0  0  0
   33.1420   37.2121   57.1459 C   0  0  0  0  0  0  0  0  0  0  0  0
   31.1030   34.9695   61.8659 C   0  0  0  0  0  0  0  0  0  0  0  0
   31.1738   34.8757   63.2431 C   0  0  0  0  0  0  0  0  0  0  0  0
   30.3574   35.9430   65.9328 H   0  0  0  0  0  0  0  0  0  0  0  0
   31.8490   34.9832   65.7843 H   0  0  0  0  0  0  0  0  0  0  0  0
   31.9399   36.7570   65.9004 H   0  0  0  0  0  0  0  0  0  0  0  0
   31.3793   38.1570   63.9978 H   0  0  0  0  0  0  0  0  0  0  0  0
   31.2533   38.3238   61.5444 H   0  0  0  0  0  0  0  0  0  0  0  0
   30.4762   35.4748   59.3615 H   0  0  0  0  0  0  0  0  0  0  0  0
   30.5709   37.2484   59.4775 H   0  0  0  0  0  0  0  0  0  0  0  0
   32.9611   40.9412   59.8804 H   0  0  0  0  0  0  0  0  0  0  0  0
   33.4986   41.6440   58.4522 H   0  0  0  0  0  0  0  0  0  0  0  0
   33.8156   36.0849   54.1810 H   0  0  0  0  0  0  0  0  0  0  0  0
   31.0250   34.0741   61.2670 H   0  0  0  0  0  0  0  0  0  0  0  0
   31.1510   33.9073   63.7204 H   0  0  0  0  0  0  0  0  0  0  0  0
  1  2  1  0  0  0  0
  1 21  1  0  0  0  0
  1 22  1  0  0  0  0
  1 23  1  0  0  0  0
  2 20  2  0  0  0  0
  2  3  1  0  0  0  0
  3  4  2  0  0  0  0
  3 24  1  0  0  0  0
  4  5  1  0  0  0  0
  4 25  1  0  0  0  0
  5  6  1  0  0  0  0
  5 19  2  0  0  0  0
  6  7  1  0  0  0  0
  6 26  1  0  0  0  0
  6 27  1  0  0  0  0
  7  8  1  0  0  0  0
  8 18  2  0  0  0  0
  8  9  1  0  0  0  0
  9 10  2  0  0  0  0
 10 11  1  0  0  0  0
 10 12  1  0  0  0  0
 11 28  1  0  0  0  0
 11 29  1  0  0  0  0
 12 13  2  0  0  0  0
 13 18  1  0  0  0  0
 13 14  1  0  0  0  0
 14 15  2  0  0  0  0
 15 16  1  0  0  0  0
 15 30  1  0  0  0  0
 16 17  1  0  0  0  0
 16 18  1  0  0  0  0
 19 20  1  0  0  0  0
 19 31  1  0  0  0  0
 20 32  1  0  0  0  0
M  END
$$$$
