ZINC000000036108      none
 OpenBabel11202420153D

 32 34  0  0  0  0  0  0  0  0999 V2000
   33.1852   36.6966   65.1625 C   0  0  0  0  0  0  0  0  0  0  0  0
   32.1690   37.1899   64.1650 C   0  0  0  0  0  0  0  0  0  0  0  0
   31.7596   38.5103   64.1908 C   0  0  0  0  0  0  0  0  0  0  0  0
   30.8276   38.9627   63.2758 C   0  0  0  0  0  0  0  0  0  0  0  0
   30.3084   38.0962   62.3318 C   0  0  0  0  0  0  0  0  0  0  0  0
   30.7143   36.7751   62.3091 C   0  0  0  0  0  0  0  0  0  0  0  0
   30.1448   35.8295   61.2832 C   0  0  0  0  0  0  0  0  0  0  0  0
   31.4814   34.8435   60.5639 S   0  0  0  0  0  0  0  0  0  0  0  0
   32.1270   36.0027   59.4045 C   0  0  0  0  0  0  0  0  0  0  0  0
   32.1039   37.3050   59.5493 N   0  0  0  0  0  0  0  0  0  0  0  0
   32.6850   37.8942   58.4715 C   0  0  0  0  0  0  0  0  0  0  0  0
   32.9216   39.2247   58.1167 C   0  0  0  0  0  0  0  0  0  0  0  0
   33.5494   39.5136   56.9257 C   0  0  0  0  0  0  0  0  0  0  0  0
   33.9488   38.4935   56.0752 C   0  0  0  0  0  0  0  0  0  0  0  0
   33.7225   37.1745   56.4111 C   0  0  0  0  0  0  0  0  0  0  0  0
   33.0917   36.8652   57.6065 C   0  0  0  0  0  0  0  0  0  0  0  0
   32.7266   35.6782   58.2205 N   0  0  0  0  0  0  0  0  0  0  0  0
   32.8695   34.7835   57.8742 H   0  0  0  0  0  0  0  0  0  0  0  0
   31.6467   36.3227   63.2240 C   0  0  0  0  0  0  0  0  0  0  0  0
   34.1875   36.8255   64.7543 H   0  0  0  0  0  0  0  0  0  0  0  0
   33.0933   37.2668   66.0870 H   0  0  0  0  0  0  0  0  0  0  0  0
   33.0096   35.6406   65.3680 H   0  0  0  0  0  0  0  0  0  0  0  0
   32.1675   39.1879   64.9260 H   0  0  0  0  0  0  0  0  0  0  0  0
   30.5075   39.9940   63.2962 H   0  0  0  0  0  0  0  0  0  0  0  0
   29.5832   38.4507   61.6144 H   0  0  0  0  0  0  0  0  0  0  0  0
   29.6511   36.4006   60.4971 H   0  0  0  0  0  0  0  0  0  0  0  0
   29.4218   35.1681   61.7606 H   0  0  0  0  0  0  0  0  0  0  0  0
   32.6128   40.0240   58.7741 H   0  0  0  0  0  0  0  0  0  0  0  0
   33.7280   40.5423   56.6498 H   0  0  0  0  0  0  0  0  0  0  0  0
   34.4403   38.7331   55.1437 H   0  0  0  0  0  0  0  0  0  0  0  0
   34.0363   36.3847   55.7446 H   0  0  0  0  0  0  0  0  0  0  0  0
   31.9670   35.2914   63.2037 H   0  0  0  0  0  0  0  0  0  0  0  0
  1  2  1  0  0  0  0
  1 20  1  0  0  0  0
  1 21  1  0  0  0  0
  1 22  1  0  0  0  0
  2 19  2  0  0  0  0
  2  3  1  0  0  0  0
  3  4  2  0  0  0  0
  3 23  1  0  0  0  0
  4  5  1  0  0  0  0
  4 24  1  0  0  0  0
  5  6  2  0  0  0  0
  5 25  1  0  0  0  0
  6  7  1  0  0  0  0
  6 19  1  0  0  0  0
  7  8  1  0  0  0  0
  7 26  1  0  0  0  0
  7 27  1  0  0  0  0
  8  9  1  0  0  0  0
  9 17  1  0  0  0  0
  9 10  2  0  0  0  0
 10 11  1  0  0  0  0
 11 16  2  0  0  0  0
 11 12  1  0  0  0  0
 12 13  2  0  0  0  0
 12 28  1  0  0  0  0
 13 14  1  0  0  0  0
 13 29  1  0  0  0  0
 14 15  2  0  0  0  0
 14 30  1  0  0  0  0
 15 16  1  0  0  0  0
 15 31  1  0  0  0  0
 16 17  1  0  0  0  0
 17 18  1  0  0  0  0
 19 32  1  0  0  0  0
M  END
$$$$
