ZINC000000037183      none
 OpenBabel11202420153D

 23 24  0  0  0  0  0  0  0  0999 V2000
   32.8589   34.9132   57.3251 O   0  0  0  0  0  0  0  0  0  0  0  0
   32.6778   35.8456   58.0821 C   0  0  0  0  0  0  0  0  0  0  0  0
   32.9799   37.2226   57.6428 C   0  0  0  0  0  0  0  0  0  0  0  0
   32.7734   38.2971   58.5109 C   0  0  0  0  0  0  0  0  0  0  0  0
   33.0582   39.5807   58.0940 C   0  0  0  0  0  0  0  0  0  0  0  0
   33.5474   39.8052   56.8192 C   0  0  0  0  0  0  0  0  0  0  0  0
   33.7490   38.7458   55.9520 C   0  0  0  0  0  0  0  0  0  0  0  0
   33.4739   37.4565   56.3575 C   0  0  0  0  0  0  0  0  0  0  0  0
   32.2012   35.6234   59.3231 N   0  0  0  0  0  0  0  0  0  0  0  0
   32.4060   34.5053   60.0736 C   0  0  0  0  0  0  0  0  0  0  0  0
   31.7623   34.6791   61.2484 C   0  0  0  0  0  0  0  0  0  0  0  0
   31.7170   33.7114   62.3675 N   0  0  0  0  0  0  0  0  0  0  0  0
   32.2963   32.6442   62.2735 O   0  0  0  0  0  0  0  0  0  0  0  0
   31.1005   33.9822   63.3824 O   0  0  0  0  0  0  0  0  0  0  0  0
   31.1446   35.9372   61.2214 C   0  0  0  0  0  0  0  0  0  0  0  0
   31.4116   36.5037   60.0743 N   0  0  0  0  0  0  0  0  0  0  0  0
   32.3919   38.1233   59.5062 H   0  0  0  0  0  0  0  0  0  0  0  0
   32.8993   40.4125   58.7643 H   0  0  0  0  0  0  0  0  0  0  0  0
   33.7687   40.8123   56.4980 H   0  0  0  0  0  0  0  0  0  0  0  0
   34.1268   38.9287   54.9569 H   0  0  0  0  0  0  0  0  0  0  0  0
   33.6356   36.6302   55.6810 H   0  0  0  0  0  0  0  0  0  0  0  0
   32.9787   33.6373   59.7821 H   0  0  0  0  0  0  0  0  0  0  0  0
   30.5526   36.3675   62.0157 H   0  0  0  0  0  0  0  0  0  0  0  0
  1  2  2  0  0  0  0
  2  3  1  0  0  0  0
  2  9  1  0  0  0  0
  3  8  2  0  0  0  0
  3  4  1  0  0  0  0
  4  5  2  0  0  0  0
  4 17  1  0  0  0  0
  5  6  1  0  0  0  0
  5 18  1  0  0  0  0
  6  7  2  0  0  0  0
  6 19  1  0  0  0  0
  7  8  1  0  0  0  0
  7 20  1  0  0  0  0
  8 21  1  0  0  0  0
  9 16  1  0  0  0  0
  9 10  1  0  0  0  0
 10 11  2  0  0  0  0
 10 22  1  0  0  0  0
 11 12  1  0  0  0  0
 11 15  1  0  0  0  0
 12 13  2  0  0  0  0
 12 14  2  0  0  0  0
 15 16  2  0  0  0  0
 15 23  1  0  0  0  0
M  END
$$$$
