ZINC000000039827      none
 OpenBabel11202420153D

 22 23  0  0  1  0  0  0  0  0999 V2000
   29.8909   37.2637   63.1123 O   0  0  0  0  0  0  0  0  0  0  0  0
   30.5513   36.8787   62.1706 C   0  0  0  0  0  0  0  0  0  0  0  0
   30.9675   37.7736   61.2794 N   0  0  0  0  0  0  0  0  0  0  0  0
   31.6353   37.4987   60.0891 C   0  0  0  0  0  0  0  0  0  0  0  0
   32.3241   38.5235   59.4473 C   0  0  0  0  0  0  0  0  0  0  0  0
   33.0040   38.2765   58.2715 C   0  0  0  0  0  0  0  0  0  0  0  0
   33.0063   37.0094   57.7172 C   0  0  0  0  0  0  0  0  0  0  0  0
   32.3224   35.9829   58.3417 C   0  0  0  0  0  0  0  0  0  0  0  0
   31.6374   36.2258   59.5217 C   0  0  0  0  0  0  0  0  0  0  0  0
   30.7568   34.9183   60.3162 S   0  0  0  0  0  0  0  0  0  0  0  0
   30.8621   35.4088   62.0637 C   0  0  1  0  0  0  0  0  0  0  0  0
   30.1396   34.8388   62.6478 H   0  0  0  0  0  0  0  0  0  0  0  0
   32.2748   35.1432   62.5874 C   0  0  0  0  0  0  0  0  0  0  0  0
   32.5098   35.9407   63.7496 O   0  0  0  0  0  0  0  0  0  0  0  0
   30.7886   38.7063   61.4772 H   0  0  0  0  0  0  0  0  0  0  0  0
   32.3279   39.5167   59.8715 H   0  0  0  0  0  0  0  0  0  0  0  0
   33.5360   39.0779   57.7804 H   0  0  0  0  0  0  0  0  0  0  0  0
   33.5413   36.8222   56.7979 H   0  0  0  0  0  0  0  0  0  0  0  0
   32.3217   34.9929   57.9101 H   0  0  0  0  0  0  0  0  0  0  0  0
   32.3749   34.0886   62.8441 H   0  0  0  0  0  0  0  0  0  0  0  0
   33.0020   35.4002   61.8171 H   0  0  0  0  0  0  0  0  0  0  0  0
   31.8979   35.7648   64.4775 H   0  0  0  0  0  0  0  0  0  0  0  0
  1  2  2  0  0  0  0
  2 11  1  0  0  0  0
  2  3  1  0  0  0  0
  3  4  1  0  0  0  0
  3 15  1  0  0  0  0
  4  9  2  0  0  0  0
  4  5  1  0  0  0  0
  5  6  2  0  0  0  0
  5 16  1  0  0  0  0
  6  7  1  0  0  0  0
  6 17  1  0  0  0  0
  7  8  2  0  0  0  0
  7 18  1  0  0  0  0
  8  9  1  0  0  0  0
  8 19  1  0  0  0  0
  9 10  1  0  0  0  0
 10 11  1  0  0  0  0
 11 12  1  1  0  0  0
 11 13  1  0  0  0  0
 13 14  1  0  0  0  0
 13 20  1  0  0  0  0
 13 21  1  0  0  0  0
 14 22  1  0  0  0  0
M  END
$$$$
