ZINC000000001501      none
 OpenBabel11202420153D

 26 27  0  0  0  0  0  0  0  0999 V2000
   31.3160   33.5478   57.1412 N   0  0  0  0  0  0  0  0  0  0  0  0
   32.1920   34.1299   57.9840 C   0  0  0  0  0  0  0  0  0  0  0  0
   32.6340   33.5054   58.9274 O   0  0  0  0  0  0  0  0  0  0  0  0
   32.6167   35.5345   57.7593 C   0  0  0  0  0  0  0  0  0  0  0  0
   33.2670   35.8941   56.5515 C   0  0  0  0  0  0  0  0  0  0  0  0
   33.6550   34.9135   55.6566 C   0  0  0  0  0  0  0  0  0  0  0  0
   33.7524   35.0557   54.2527 C   0  0  0  0  0  0  0  0  0  0  0  0
   34.1743   33.8326   53.7636 C   0  0  0  0  0  0  0  0  0  0  0  0
   34.3237   32.9864   54.8460 C   0  0  0  0  0  0  0  0  0  0  0  0
   34.7610   31.5737   54.7764 N   0  0  0  0  0  0  0  0  0  0  0  0
   35.0435   31.0285   53.6114 O   0  0  0  0  0  0  0  0  0  0  0  0
   34.8674   30.8622   55.8796 O   0  0  0  0  0  0  0  0  0  0  0  0
   34.0153   33.6475   55.9662 O   0  0  0  0  0  0  0  0  0  0  0  0
   32.3771   36.4971   58.7328 C   0  0  0  0  0  0  0  0  0  0  0  0
   31.7259   36.2853   60.0292 C   0  0  0  0  0  0  0  0  0  0  0  0
   31.7127   37.5184   60.6477 C   0  0  0  0  0  0  0  0  0  0  0  0
   32.3155   38.4245   59.7872 C   0  0  0  0  0  0  0  0  0  0  0  0
   32.7050   37.8077   58.6683 O   0  0  0  0  0  0  0  0  0  0  0  0
   30.9632   34.0467   56.3879 H   0  0  0  0  0  0  0  0  0  0  0  0
   31.0386   32.6299   57.2880 H   0  0  0  0  0  0  0  0  0  0  0  0
   33.4634   36.9332   56.3328 H   0  0  0  0  0  0  0  0  0  0  0  0
   33.5387   35.9436   53.6765 H   0  0  0  0  0  0  0  0  0  0  0  0
   34.3540   33.5849   52.7279 H   0  0  0  0  0  0  0  0  0  0  0  0
   31.3371   35.3564   60.4193 H   0  0  0  0  0  0  0  0  0  0  0  0
   31.3063   37.7385   61.6238 H   0  0  0  0  0  0  0  0  0  0  0  0
   32.4538   39.4755   59.9940 H   0  0  0  0  0  0  0  0  0  0  0  0
  1  2  1  0  0  0  0
  1 19  1  0  0  0  0
  1 20  1  0  0  0  0
  2  3  2  0  0  0  0
  2  4  1  0  0  0  0
  4  5  2  0  0  0  0
  4 14  1  0  0  0  0
  5  6  1  0  0  0  0
  5 21  1  0  0  0  0
  6 13  1  0  0  0  0
  6  7  2  0  0  0  0
  7  8  1  0  0  0  0
  7 22  1  0  0  0  0
  8  9  2  0  0  0  0
  8 23  1  0  0  0  0
  9 10  1  0  0  0  0
  9 13  1  0  0  0  0
 10 11  2  0  0  0  0
 10 12  2  0  0  0  0
 14 18  1  0  0  0  0
 14 15  2  0  0  0  0
 15 16  1  0  0  0  0
 15 24  1  0  0  0  0
 16 17  2  0  0  0  0
 16 25  1  0  0  0  0
 17 18  1  0  0  0  0
 17 26  1  0  0  0  0
M  END
$$$$
