ZINC000000034184      none
 OpenBabel11202420153D

 36 38  0  0  0  0  0  0  0  0999 V2000
   32.5052   34.7361   57.6924 C   0  0  0  0  0  0  0  0  0  0  0  0
   32.4934   36.0743   58.3852 C   0  0  0  0  0  0  0  0  0  0  0  0
   32.8257   37.2269   57.6907 C   0  0  0  0  0  0  0  0  0  0  0  0
   32.8020   38.4372   58.3660 C   0  0  0  0  0  0  0  0  0  0  0  0
   33.1563   39.7161   57.6518 C   0  0  0  0  0  0  0  0  0  0  0  0
   32.4652   38.4558   59.6450 N   0  0  0  0  0  0  0  0  0  0  0  0
   32.1531   37.3359   60.2793 C   0  0  0  0  0  0  0  0  0  0  0  0
   31.8043   37.3925   61.6214 N   0  0  0  0  0  0  0  0  0  0  0  0
   30.7353   38.1271   62.0132 C   0  0  0  0  0  0  0  0  0  0  0  0
   29.8390   38.7429   62.3418 N   0  0  0  0  0  0  0  0  0  0  0  0
   32.5920   36.6579   62.6145 C   0  0  0  0  0  0  0  0  0  0  0  0
   31.7322   35.6921   63.3026 N   0  0  0  0  0  0  0  0  0  0  0  0
   31.5340   34.4248   62.8968 C   0  0  0  0  0  0  0  0  0  0  0  0
   32.0324   33.9080   61.9173 O   0  0  0  0  0  0  0  0  0  0  0  0
   30.6084   33.7664   63.8428 C   0  0  0  0  0  0  0  0  0  0  0  0
   30.0577   32.4982   63.9335 C   0  0  0  0  0  0  0  0  0  0  0  0
   29.1948   32.1967   64.9756 C   0  0  0  0  0  0  0  0  0  0  0  0
   28.8885   33.1490   65.9294 C   0  0  0  0  0  0  0  0  0  0  0  0
   29.4321   34.4217   65.8518 C   0  0  0  0  0  0  0  0  0  0  0  0
   30.2924   34.7391   64.8129 C   0  0  0  0  0  0  0  0  0  0  0  0
   31.0364   35.9554   64.4233 C   0  0  0  0  0  0  0  0  0  0  0  0
   31.0216   37.0155   65.0158 O   0  0  0  0  0  0  0  0  0  0  0  0
   32.1710   36.1627   59.6651 N   0  0  0  0  0  0  0  0  0  0  0  0
   33.4938   34.2869   57.7868 H   0  0  0  0  0  0  0  0  0  0  0  0
   31.7638   34.0825   58.1518 H   0  0  0  0  0  0  0  0  0  0  0  0
   32.2667   34.8711   56.6374 H   0  0  0  0  0  0  0  0  0  0  0  0
   33.0967   37.1829   56.6462 H   0  0  0  0  0  0  0  0  0  0  0  0
   34.2274   39.8975   57.7411 H   0  0  0  0  0  0  0  0  0  0  0  0
   32.8889   39.6302   56.5987 H   0  0  0  0  0  0  0  0  0  0  0  0
   32.6089   40.5457   58.0992 H   0  0  0  0  0  0  0  0  0  0  0  0
   33.0054   37.3581   63.3404 H   0  0  0  0  0  0  0  0  0  0  0  0
   33.4047   36.1301   62.1154 H   0  0  0  0  0  0  0  0  0  0  0  0
   30.2962   31.7493   63.1929 H   0  0  0  0  0  0  0  0  0  0  0  0
   28.7616   31.2099   65.0445 H   0  0  0  0  0  0  0  0  0  0  0  0
   28.2180   32.9009   66.7388 H   0  0  0  0  0  0  0  0  0  0  0  0
   29.1860   35.1629   66.5976 H   0  0  0  0  0  0  0  0  0  0  0  0
  1  2  1  0  0  0  0
  1 24  1  0  0  0  0
  1 25  1  0  0  0  0
  1 26  1  0  0  0  0
  2 23  2  0  0  0  0
  2  3  1  0  0  0  0
  3  4  2  0  0  0  0
  3 27  1  0  0  0  0
  4  5  1  0  0  0  0
  4  6  1  0  0  0  0
  5 28  1  0  0  0  0
  5 29  1  0  0  0  0
  5 30  1  0  0  0  0
  6  7  2  0  0  0  0
  7  8  1  0  0  0  0
  7 23  1  0  0  0  0
  8  9  1  0  0  0  0
  8 11  1  0  0  0  0
  9 10  3  0  0  0  0
 11 12  1  0  0  0  0
 11 31  1  0  0  0  0
 11 32  1  0  0  0  0
 12 21  1  0  0  0  0
 12 13  1  0  0  0  0
 13 14  2  0  0  0  0
 13 15  1  0  0  0  0
 15 20  2  0  0  0  0
 15 16  1  0  0  0  0
 16 17  2  0  0  0  0
 16 33  1  0  0  0  0
 17 18  1  0  0  0  0
 17 34  1  0  0  0  0
 18 19  2  0  0  0  0
 18 35  1  0  0  0  0
 19 20  1  0  0  0  0
 19 36  1  0  0  0  0
 20 21  1  0  0  0  0
 21 22  2  0  0  0  0
M  END
$$$$
