ZINC000000040594      none
 OpenBabel11202420153D

 30 31  0  0  0  0  0  0  0  0999 V2000
   33.8399   32.3056   52.8941 C   0  0  0  0  0  0  0  0  0  0  0  0
   34.3666   32.8393   54.1528 N   0  0  0  0  0  0  0  0  0  0  0  0
   35.1514   32.1672   55.0627 C   0  0  0  0  0  0  0  0  0  0  0  0
   35.4069   33.0227   56.0672 C   0  0  0  0  0  0  0  0  0  0  0  0
   34.8059   34.1920   55.7900 N   0  0  0  0  0  0  0  0  0  0  0  0
   34.1722   34.0934   54.6447 C   0  0  0  0  0  0  0  0  0  0  0  0
   33.2355   35.3702   53.8718 S   0  0  0  0  0  0  0  0  0  0  0  0
   34.1205   36.8248   54.4856 C   0  0  0  0  0  0  0  0  0  0  0  0
   33.5030   37.2778   55.7833 C   0  0  0  0  0  0  0  0  0  0  0  0
   33.0334   38.3924   55.8752 O   0  0  0  0  0  0  0  0  0  0  0  0
   33.4774   36.4466   56.8439 N   0  0  0  0  0  0  0  0  0  0  0  0
   32.9089   36.8693   58.0511 C   0  0  0  0  0  0  0  0  0  0  0  0
   32.9442   38.2119   58.4043 C   0  0  0  0  0  0  0  0  0  0  0  0
   32.3784   38.6274   59.5938 C   0  0  0  0  0  0  0  0  0  0  0  0
   31.7860   37.7070   60.4389 C   0  0  0  0  0  0  0  0  0  0  0  0
   31.7531   36.3675   60.0936 C   0  0  0  0  0  0  0  0  0  0  0  0
   31.0087   35.2154   61.1577 Cl  0  0  0  0  0  0  0  0  0  0  0  0
   32.3133   35.9459   58.9011 C   0  0  0  0  0  0  0  0  0  0  0  0
   32.2728   34.2653   58.4677 Cl  0  0  0  0  0  0  0  0  0  0  0  0
   34.5532   32.4960   52.0921 H   0  0  0  0  0  0  0  0  0  0  0  0
   33.6823   31.2315   52.9927 H   0  0  0  0  0  0  0  0  0  0  0  0
   32.8927   32.7920   52.6612 H   0  0  0  0  0  0  0  0  0  0  0  0
   35.4963   31.1468   54.9840 H   0  0  0  0  0  0  0  0  0  0  0  0
   35.9985   32.8084   56.9450 H   0  0  0  0  0  0  0  0  0  0  0  0
   34.0532   37.6276   53.7513 H   0  0  0  0  0  0  0  0  0  0  0  0
   35.1674   36.5703   54.6507 H   0  0  0  0  0  0  0  0  0  0  0  0
   33.8529   35.5552   56.7706 H   0  0  0  0  0  0  0  0  0  0  0  0
   33.4105   38.9312   57.7475 H   0  0  0  0  0  0  0  0  0  0  0  0
   32.4024   39.6721   59.8662 H   0  0  0  0  0  0  0  0  0  0  0  0
   31.3478   38.0345   61.3700 H   0  0  0  0  0  0  0  0  0  0  0  0
  1  2  1  0  0  0  0
  1 20  1  0  0  0  0
  1 21  1  0  0  0  0
  1 22  1  0  0  0  0
  2  6  1  0  0  0  0
  2  3  1  0  0  0  0
  3  4  2  0  0  0  0
  3 23  1  0  0  0  0
  4  5  1  0  0  0  0
  4 24  1  0  0  0  0
  5  6  2  0  0  0  0
  6  7  1  0  0  0  0
  7  8  1  0  0  0  0
  8  9  1  0  0  0  0
  8 25  1  0  0  0  0
  8 26  1  0  0  0  0
  9 10  2  0  0  0  0
  9 11  1  0  0  0  0
 11 12  1  0  0  0  0
 11 27  1  0  0  0  0
 12 18  2  0  0  0  0
 12 13  1  0  0  0  0
 13 14  2  0  0  0  0
 13 28  1  0  0  0  0
 14 15  1  0  0  0  0
 14 29  1  0  0  0  0
 15 16  2  0  0  0  0
 15 30  1  0  0  0  0
 16 17  1  0  0  0  0
 16 18  1  0  0  0  0
 18 19  1  0  0  0  0
M  END
$$$$
