ZINC000000030329      none
 OpenBabel11202420163D

 33 34  0  0  0  0  0  0  0  0999 V2000
   33.5875   35.9317   55.0306 N   0  0  0  0  0  0  0  0  0  0  0  0
   33.2197   36.0438   56.3223 C   0  0  0  0  0  0  0  0  0  0  0  0
   32.8909   35.0551   56.9490 O   0  0  0  0  0  0  0  0  0  0  0  0
   33.2160   37.3663   56.9760 C   0  0  0  0  0  0  0  0  0  0  0  0
   33.5928   38.5050   56.2600 C   0  0  0  0  0  0  0  0  0  0  0  0
   33.5869   39.7375   56.8760 C   0  0  0  0  0  0  0  0  0  0  0  0
   33.2086   39.8543   58.2038 C   0  0  0  0  0  0  0  0  0  0  0  0
   32.8341   38.7381   58.9242 C   0  0  0  0  0  0  0  0  0  0  0  0
   32.8340   37.4879   58.3201 C   0  0  0  0  0  0  0  0  0  0  0  0
   32.4569   36.3601   59.0453 N   0  0  0  0  0  0  0  0  0  0  0  0
   31.5609   36.4708   60.0460 C   0  0  0  0  0  0  0  0  0  0  0  0
   31.0829   37.5527   60.3150 O   0  0  0  0  0  0  0  0  0  0  0  0
   31.1530   35.2508   60.8307 C   0  0  0  0  0  0  0  0  0  0  0  0
   31.4978   35.4499   62.2842 C   0  0  0  0  0  0  0  0  0  0  0  0
   30.7316   34.8483   63.2649 C   0  0  0  0  0  0  0  0  0  0  0  0
   31.0507   35.0271   64.5981 C   0  0  0  0  0  0  0  0  0  0  0  0
   32.1300   35.8143   64.9508 C   0  0  0  0  0  0  0  0  0  0  0  0
   32.8930   36.4215   63.9700 C   0  0  0  0  0  0  0  0  0  0  0  0
   32.5770   36.2385   62.6368 C   0  0  0  0  0  0  0  0  0  0  0  0
   33.8499   36.7204   54.5306 H   0  0  0  0  0  0  0  0  0  0  0  0
   33.5899   35.0620   54.6008 H   0  0  0  0  0  0  0  0  0  0  0  0
   33.8843   38.4200   55.2235 H   0  0  0  0  0  0  0  0  0  0  0  0
   33.8789   40.6169   56.3212 H   0  0  0  0  0  0  0  0  0  0  0  0
   33.2070   40.8246   58.6782 H   0  0  0  0  0  0  0  0  0  0  0  0
   32.5405   38.8373   59.9588 H   0  0  0  0  0  0  0  0  0  0  0  0
   32.8391   35.4950   58.8302 H   0  0  0  0  0  0  0  0  0  0  0  0
   30.0786   35.0964   60.7300 H   0  0  0  0  0  0  0  0  0  0  0  0
   31.6828   34.3785   60.4477 H   0  0  0  0  0  0  0  0  0  0  0  0
   29.8858   34.2357   62.9896 H   0  0  0  0  0  0  0  0  0  0  0  0
   30.4544   34.5539   65.3642 H   0  0  0  0  0  0  0  0  0  0  0  0
   32.3766   35.9589   65.9923 H   0  0  0  0  0  0  0  0  0  0  0  0
   33.7358   37.0379   64.2456 H   0  0  0  0  0  0  0  0  0  0  0  0
   33.1729   36.7122   61.8707 H   0  0  0  0  0  0  0  0  0  0  0  0
  1  2  1  0  0  0  0
  1 20  1  0  0  0  0
  1 21  1  0  0  0  0
  2  3  2  0  0  0  0
  2  4  1  0  0  0  0
  4  9  2  0  0  0  0
  4  5  1  0  0  0  0
  5  6  2  0  0  0  0
  5 22  1  0  0  0  0
  6  7  1  0  0  0  0
  6 23  1  0  0  0  0
  7  8  2  0  0  0  0
  7 24  1  0  0  0  0
  8  9  1  0  0  0  0
  8 25  1  0  0  0  0
  9 10  1  0  0  0  0
 10 11  1  0  0  0  0
 10 26  1  0  0  0  0
 11 12  2  0  0  0  0
 11 13  1  0  0  0  0
 13 14  1  0  0  0  0
 13 27  1  0  0  0  0
 13 28  1  0  0  0  0
 14 19  2  0  0  0  0
 14 15  1  0  0  0  0
 15 16  2  0  0  0  0
 15 29  1  0  0  0  0
 16 17  1  0  0  0  0
 16 30  1  0  0  0  0
 17 18  2  0  0  0  0
 17 31  1  0  0  0  0
 18 19  1  0  0  0  0
 18 32  1  0  0  0  0
 19 33  1  0  0  0  0
M  END
$$$$
