ZINC000000013192      none
 OpenBabel11202420153D

 31 33  0  0  0  0  0  0  0  0999 V2000
   28.9625   34.2507   65.7009 C   0  0  0  0  0  0  0  0  0  0  0  0
   28.5909   34.9428   64.3880 C   0  0  0  0  0  0  0  0  0  0  0  0
   29.6024   35.9521   64.0647 N   0  0  0  0  0  0  0  0  0  0  0  0
   30.3381   35.8638   62.8768 C   0  0  0  0  0  0  0  0  0  0  0  0
   31.1649   34.7651   62.6780 C   0  0  0  0  0  0  0  0  0  0  0  0
   31.9387   34.6758   61.5365 C   0  0  0  0  0  0  0  0  0  0  0  0
   31.8935   35.6818   60.5896 C   0  0  0  0  0  0  0  0  0  0  0  0
   31.0488   36.7773   60.7693 C   0  0  0  0  0  0  0  0  0  0  0  0
   30.2561   36.8626   61.9082 C   0  0  0  0  0  0  0  0  0  0  0  0
   29.3883   37.9457   62.0497 N   0  0  0  0  0  0  0  0  0  0  0  0
   29.1284   38.6146   63.1628 C   0  0  0  0  0  0  0  0  0  0  0  0
   28.3620   39.5544   63.0767 O   0  0  0  0  0  0  0  0  0  0  0  0
   29.6801   38.3245   64.4887 C   0  0  0  0  0  0  0  0  0  0  0  0
   30.0133   39.3724   65.3546 C   0  0  0  0  0  0  0  0  0  0  0  0
   30.4522   39.0591   66.6292 C   0  0  0  0  0  0  0  0  0  0  0  0
   30.5473   37.7324   67.0092 C   0  0  0  0  0  0  0  0  0  0  0  0
   30.2497   36.7591   66.1707 N   0  0  0  0  0  0  0  0  0  0  0  0
   29.8472   37.0024   64.9324 C   0  0  0  0  0  0  0  0  0  0  0  0
   29.0074   34.9893   66.5011 H   0  0  0  0  0  0  0  0  0  0  0  0
   28.2100   33.4997   65.9415 H   0  0  0  0  0  0  0  0  0  0  0  0
   29.9349   33.7697   65.5955 H   0  0  0  0  0  0  0  0  0  0  0  0
   27.6184   35.4237   64.4934 H   0  0  0  0  0  0  0  0  0  0  0  0
   28.5460   34.2040   63.5878 H   0  0  0  0  0  0  0  0  0  0  0  0
   31.2028   33.9787   63.4172 H   0  0  0  0  0  0  0  0  0  0  0  0
   32.5793   33.8197   61.3843 H   0  0  0  0  0  0  0  0  0  0  0  0
   32.5116   35.6188   59.7062 H   0  0  0  0  0  0  0  0  0  0  0  0
   31.0134   37.5628   60.0289 H   0  0  0  0  0  0  0  0  0  0  0  0
   28.9266   38.2396   61.2488 H   0  0  0  0  0  0  0  0  0  0  0  0
   29.9302   40.4008   65.0357 H   0  0  0  0  0  0  0  0  0  0  0  0
   30.7180   39.8440   67.3217 H   0  0  0  0  0  0  0  0  0  0  0  0
   30.8709   37.4894   68.0105 H   0  0  0  0  0  0  0  0  0  0  0  0
  1  2  1  0  0  0  0
  1 19  1  0  0  0  0
  1 20  1  0  0  0  0
  1 21  1  0  0  0  0
  2  3  1  0  0  0  0
  2 22  1  0  0  0  0
  2 23  1  0  0  0  0
  3 18  1  0  0  0  0
  3  4  1  0  0  0  0
  4  9  2  0  0  0  0
  4  5  1  0  0  0  0
  5  6  2  0  0  0  0
  5 24  1  0  0  0  0
  6  7  1  0  0  0  0
  6 25  1  0  0  0  0
  7  8  2  0  0  0  0
  7 26  1  0  0  0  0
  8  9  1  0  0  0  0
  8 27  1  0  0  0  0
  9 10  1  0  0  0  0
 10 11  1  0  0  0  0
 10 28  1  0  0  0  0
 11 12  2  0  0  0  0
 11 13  1  0  0  0  0
 13 18  2  0  0  0  0
 13 14  1  0  0  0  0
 14 15  2  0  0  0  0
 14 29  1  0  0  0  0
 15 16  1  0  0  0  0
 15 30  1  0  0  0  0
 16 17  2  0  0  0  0
 16 31  1  0  0  0  0
 17 18  1  0  0  0  0
M  END
$$$$
