ZINC000000030669      none
 OpenBabel11202420163D

 34 35  0  0  1  0  0  0  0  0999 V2000
   31.7318   33.1557   61.8630 C   0  0  0  0  0  0  0  0  0  0  0  0
   32.2410   34.1635   60.8304 C   0  0  0  0  0  0  0  0  0  0  0  0
   31.6353   35.5387   61.1182 C   0  0  1  0  0  0  0  0  0  0  0  0
   30.5485   35.4766   61.0601 H   0  0  0  0  0  0  0  0  0  0  0  0
   32.0397   35.9867   62.4992 C   0  0  0  0  0  0  0  0  0  0  0  0
   33.2134   36.1200   62.7740 O   0  0  0  0  0  0  0  0  0  0  0  0
   31.0970   36.2391   63.4288 N   0  0  0  0  0  0  0  0  0  0  0  0
   31.4714   36.6539   64.7075 C   0  0  0  0  0  0  0  0  0  0  0  0
   30.6859   36.3471   65.8173 C   0  0  0  0  0  0  0  0  0  0  0  0
   31.0935   36.7716   67.0650 C   0  0  0  0  0  0  0  0  0  0  0  0
   32.2048   37.4676   67.2130 N   0  0  0  0  0  0  0  0  0  0  0  0
   32.9724   37.7823   66.1868 C   0  0  0  0  0  0  0  0  0  0  0  0
   32.6377   37.3908   64.9072 C   0  0  0  0  0  0  0  0  0  0  0  0
   32.1367   36.5314   60.1013 C   0  0  0  0  0  0  0  0  0  0  0  0
   32.2679   37.8644   60.4429 C   0  0  0  0  0  0  0  0  0  0  0  0
   32.7321   38.7742   59.5114 C   0  0  0  0  0  0  0  0  0  0  0  0
   33.0566   38.3525   58.2355 C   0  0  0  0  0  0  0  0  0  0  0  0
   32.9204   37.0203   57.8923 C   0  0  0  0  0  0  0  0  0  0  0  0
   32.4603   36.1098   58.8251 C   0  0  0  0  0  0  0  0  0  0  0  0
   31.8853   33.5542   62.8659 H   0  0  0  0  0  0  0  0  0  0  0  0
   30.6689   32.9762   61.7020 H   0  0  0  0  0  0  0  0  0  0  0  0
   32.2787   32.2190   61.7566 H   0  0  0  0  0  0  0  0  0  0  0  0
   31.9484   33.8395   59.8316 H   0  0  0  0  0  0  0  0  0  0  0  0
   33.3275   34.2258   60.8885 H   0  0  0  0  0  0  0  0  0  0  0  0
   30.1583   36.1324   63.2090 H   0  0  0  0  0  0  0  0  0  0  0  0
   29.7731   35.7814   65.7025 H   0  0  0  0  0  0  0  0  0  0  0  0
   30.4930   36.5353   67.9310 H   0  0  0  0  0  0  0  0  0  0  0  0
   33.8741   38.3538   66.3510 H   0  0  0  0  0  0  0  0  0  0  0  0
   33.2706   37.6513   64.0716 H   0  0  0  0  0  0  0  0  0  0  0  0
   32.0108   38.1945   61.4386 H   0  0  0  0  0  0  0  0  0  0  0  0
   32.8388   39.8149   59.7796 H   0  0  0  0  0  0  0  0  0  0  0  0
   33.4166   39.0637   57.5069 H   0  0  0  0  0  0  0  0  0  0  0  0
   33.1739   36.6909   56.8955 H   0  0  0  0  0  0  0  0  0  0  0  0
   32.3539   35.0691   58.5570 H   0  0  0  0  0  0  0  0  0  0  0  0
  1  2  1  0  0  0  0
  1 20  1  0  0  0  0
  1 21  1  0  0  0  0
  1 22  1  0  0  0  0
  2  3  1  0  0  0  0
  2 23  1  0  0  0  0
  2 24  1  0  0  0  0
  3  4  1  6  0  0  0
  3  5  1  0  0  0  0
  3 14  1  0  0  0  0
  5  6  2  0  0  0  0
  5  7  1  0  0  0  0
  7  8  1  0  0  0  0
  7 25  1  0  0  0  0
  8 13  2  0  0  0  0
  8  9  1  0  0  0  0
  9 10  2  0  0  0  0
  9 26  1  0  0  0  0
 10 11  1  0  0  0  0
 10 27  1  0  0  0  0
 11 12  2  0  0  0  0
 12 13  1  0  0  0  0
 12 28  1  0  0  0  0
 13 29  1  0  0  0  0
 14 19  2  0  0  0  0
 14 15  1  0  0  0  0
 15 16  2  0  0  0  0
 15 30  1  0  0  0  0
 16 17  1  0  0  0  0
 16 31  1  0  0  0  0
 17 18  2  0  0  0  0
 17 32  1  0  0  0  0
 18 19  1  0  0  0  0
 18 33  1  0  0  0  0
 19 34  1  0  0  0  0
M  END
$$$$
