ZINC000000033906      none
 OpenBabel11202420153D

 39 40  0  0  1  0  0  0  0  0999 V2000
   32.0765   33.1145   56.4377 C   0  0  0  0  0  0  0  0  0  0  0  0
   33.2394   33.8823   57.0696 C   0  0  0  0  0  0  0  0  0  0  0  0
   32.7634   34.5749   58.3205 C   0  0  0  0  0  0  0  0  0  0  0  0
   32.2683   35.7941   58.3450 C   0  0  0  0  0  0  0  0  0  0  0  0
   31.9137   36.1128   59.7803 C   0  0  1  0  0  0  0  0  0  0  0  0
   32.6679   37.2352   60.2427 O   0  0  0  0  0  0  0  0  0  0  0  0
   30.4145   36.3868   59.9143 C   0  0  0  0  0  0  0  0  0  0  0  0
   29.6959   35.2569   59.5093 F   0  0  0  0  0  0  0  0  0  0  0  0
   30.1112   36.6788   61.2484 F   0  0  0  0  0  0  0  0  0  0  0  0
   30.0653   37.4753   59.1077 F   0  0  0  0  0  0  0  0  0  0  0  0
   32.2838   34.9007   60.5303 N   0  0  0  0  0  0  0  0  0  0  0  0
   32.1580   34.6943   61.8563 C   0  0  0  0  0  0  0  0  0  0  0  0
   32.5068   33.6388   62.3415 O   0  0  0  0  0  0  0  0  0  0  0  0
   31.5842   35.7749   62.7361 C   0  0  0  0  0  0  0  0  0  0  0  0
   32.1921   35.6691   64.1362 C   0  0  0  0  0  0  0  0  0  0  0  0
   31.6183   36.7497   65.0160 C   0  0  0  0  0  0  0  0  0  0  0  0
   32.2429   37.9804   65.0954 C   0  0  0  0  0  0  0  0  0  0  0  0
   31.7209   38.9692   65.9084 C   0  0  0  0  0  0  0  0  0  0  0  0
   30.5727   38.7281   66.6395 C   0  0  0  0  0  0  0  0  0  0  0  0
   29.9476   37.4978   66.5593 C   0  0  0  0  0  0  0  0  0  0  0  0
   30.4708   36.5085   65.7478 C   0  0  0  0  0  0  0  0  0  0  0  0
   32.7997   34.0083   59.5801 N   0  0  0  0  0  0  0  0  0  0  0  0
   32.4208   32.6136   55.5330 H   0  0  0  0  0  0  0  0  0  0  0  0
   31.7042   32.3730   57.1445 H   0  0  0  0  0  0  0  0  0  0  0  0
   31.2761   33.8103   56.1858 H   0  0  0  0  0  0  0  0  0  0  0  0
   33.6117   34.6240   56.3630 H   0  0  0  0  0  0  0  0  0  0  0  0
   34.0397   33.1867   57.3216 H   0  0  0  0  0  0  0  0  0  0  0  0
   32.1395   36.4479   57.4951 H   0  0  0  0  0  0  0  0  0  0  0  0
   32.4649   38.0615   59.7835 H   0  0  0  0  0  0  0  0  0  0  0  0
   30.5028   35.6557   62.7995 H   0  0  0  0  0  0  0  0  0  0  0  0
   31.8178   36.7513   62.3115 H   0  0  0  0  0  0  0  0  0  0  0  0
   33.2738   35.7885   64.0726 H   0  0  0  0  0  0  0  0  0  0  0  0
   31.9587   34.6927   64.5608 H   0  0  0  0  0  0  0  0  0  0  0  0
   33.1395   38.1690   64.5236 H   0  0  0  0  0  0  0  0  0  0  0  0
   32.2091   39.9304   65.9711 H   0  0  0  0  0  0  0  0  0  0  0  0
   30.1642   39.5010   67.2737 H   0  0  0  0  0  0  0  0  0  0  0  0
   29.0508   37.3094   67.1307 H   0  0  0  0  0  0  0  0  0  0  0  0
   29.9826   35.5471   65.6852 H   0  0  0  0  0  0  0  0  0  0  0  0
   33.1328   33.1190   59.7784 H   0  0  0  0  0  0  0  0  0  0  0  0
  1  2  1  0  0  0  0
  1 23  1  0  0  0  0
  1 24  1  0  0  0  0
  1 25  1  0  0  0  0
  2  3  1  0  0  0  0
  2 26  1  0  0  0  0
  2 27  1  0  0  0  0
  3 22  1  0  0  0  0
  3  4  2  0  0  0  0
  4  5  1  0  0  0  0
  4 28  1  0  0  0  0
  5  6  1  1  0  0  0
  5  7  1  0  0  0  0
  5 11  1  0  0  0  0
  6 29  1  0  0  0  0
  7  8  1  0  0  0  0
  7  9  1  0  0  0  0
  7 10  1  0  0  0  0
 11 12  1  0  0  0  0
 11 22  1  0  0  0  0
 12 13  2  0  0  0  0
 12 14  1  0  0  0  0
 14 15  1  0  0  0  0
 14 30  1  0  0  0  0
 14 31  1  0  0  0  0
 15 16  1  0  0  0  0
 15 32  1  0  0  0  0
 15 33  1  0  0  0  0
 16 21  2  0  0  0  0
 16 17  1  0  0  0  0
 17 18  2  0  0  0  0
 17 34  1  0  0  0  0
 18 19  1  0  0  0  0
 18 35  1  0  0  0  0
 19 20  2  0  0  0  0
 19 36  1  0  0  0  0
 20 21  1  0  0  0  0
 20 37  1  0  0  0  0
 21 38  1  0  0  0  0
 22 39  1  0  0  0  0
M  END
$$$$
