ZINC000000030403      none
 OpenBabel11202420163D

 38 38  0  0  0  0  0  0  0  0999 V2000
   34.0503   35.6468   53.4881 C   0  0  0  0  0  0  0  0  0  0  0  0
   33.6325   35.8442   54.9225 C   0  0  0  0  0  0  0  0  0  0  0  0
   33.3379   34.8864   55.6055 O   0  0  0  0  0  0  0  0  0  0  0  0
   33.5863   37.0853   55.4462 N   0  0  0  0  0  0  0  0  0  0  0  0
   33.1997   37.2679   56.7734 C   0  0  0  0  0  0  0  0  0  0  0  0
   33.1531   38.5495   57.3127 C   0  0  0  0  0  0  0  0  0  0  0  0
   32.7774   38.7329   58.6245 C   0  0  0  0  0  0  0  0  0  0  0  0
   32.4330   37.6306   59.4115 C   0  0  0  0  0  0  0  0  0  0  0  0
   32.0247   37.8238   60.8167 C   0  0  0  0  0  0  0  0  0  0  0  0
   31.5137   38.8713   61.1627 O   0  0  0  0  0  0  0  0  0  0  0  0
   32.2182   36.8389   61.7162 N   0  0  0  0  0  0  0  0  0  0  0  0
   31.8129   37.0306   63.1108 C   0  0  0  0  0  0  0  0  0  0  0  0
   32.7306   36.2164   64.0251 C   0  0  0  0  0  0  0  0  0  0  0  0
   32.3073   36.4166   65.4818 C   0  0  0  0  0  0  0  0  0  0  0  0
   32.4117   37.8994   65.8439 C   0  0  0  0  0  0  0  0  0  0  0  0
   30.8619   35.9482   65.6617 C   0  0  0  0  0  0  0  0  0  0  0  0
   32.4810   36.3445   58.8667 C   0  0  0  0  0  0  0  0  0  0  0  0
   32.8621   36.1679   57.5557 C   0  0  0  0  0  0  0  0  0  0  0  0
   35.0614   36.0295   53.3483 H   0  0  0  0  0  0  0  0  0  0  0  0
   34.0274   34.5843   53.2458 H   0  0  0  0  0  0  0  0  0  0  0  0
   33.3647   36.1838   52.8327 H   0  0  0  0  0  0  0  0  0  0  0  0
   33.8219   37.8513   54.8998 H   0  0  0  0  0  0  0  0  0  0  0  0
   33.4161   39.4013   56.7030 H   0  0  0  0  0  0  0  0  0  0  0  0
   32.7456   39.7276   59.0438 H   0  0  0  0  0  0  0  0  0  0  0  0
   32.6259   36.0031   61.4400 H   0  0  0  0  0  0  0  0  0  0  0  0
   31.8871   38.0870   63.3689 H   0  0  0  0  0  0  0  0  0  0  0  0
   30.7833   36.6967   63.2392 H   0  0  0  0  0  0  0  0  0  0  0  0
   32.6563   35.1601   63.7671 H   0  0  0  0  0  0  0  0  0  0  0  0
   33.7603   36.5503   63.8968 H   0  0  0  0  0  0  0  0  0  0  0  0
   32.9611   35.8365   66.1331 H   0  0  0  0  0  0  0  0  0  0  0  0
   31.7580   38.4795   65.1926 H   0  0  0  0  0  0  0  0  0  0  0  0
   32.1101   38.0421   66.8816 H   0  0  0  0  0  0  0  0  0  0  0  0
   33.4414   38.2331   65.7157 H   0  0  0  0  0  0  0  0  0  0  0  0
   30.7876   34.8917   65.4037 H   0  0  0  0  0  0  0  0  0  0  0  0
   30.5604   36.0909   66.6994 H   0  0  0  0  0  0  0  0  0  0  0  0
   30.2083   36.5282   65.0104 H   0  0  0  0  0  0  0  0  0  0  0  0
   32.2197   35.4902   59.4735 H   0  0  0  0  0  0  0  0  0  0  0  0
   32.8994   35.1743   57.1339 H   0  0  0  0  0  0  0  0  0  0  0  0
  1  2  1  0  0  0  0
  1 19  1  0  0  0  0
  1 20  1  0  0  0  0
  1 21  1  0  0  0  0
  2  3  2  0  0  0  0
  2  4  1  0  0  0  0
  4  5  1  0  0  0  0
  4 22  1  0  0  0  0
  5 18  2  0  0  0  0
  5  6  1  0  0  0  0
  6  7  2  0  0  0  0
  6 23  1  0  0  0  0
  7  8  1  0  0  0  0
  7 24  1  0  0  0  0
  8  9  1  0  0  0  0
  8 17  2  0  0  0  0
  9 10  2  0  0  0  0
  9 11  1  0  0  0  0
 11 12  1  0  0  0  0
 11 25  1  0  0  0  0
 12 13  1  0  0  0  0
 12 26  1  0  0  0  0
 12 27  1  0  0  0  0
 13 14  1  0  0  0  0
 13 28  1  0  0  0  0
 13 29  1  0  0  0  0
 14 15  1  0  0  0  0
 14 16  1  0  0  0  0
 14 30  1  0  0  0  0
 15 31  1  0  0  0  0
 15 32  1  0  0  0  0
 15 33  1  0  0  0  0
 16 34  1  0  0  0  0
 16 35  1  0  0  0  0
 16 36  1  0  0  0  0
 17 18  1  0  0  0  0
 17 37  1  0  0  0  0
 18 38  1  0  0  0  0
M  END
$$$$
