ZINC000000000007      none
 OpenBabel11202420153D

 43 43  0  0  0  0  0  0  0  0999 V2000
   34.0665   36.8920   54.1688 C   0  0  0  0  0  0  0  0  0  0  0  0
   33.0680   36.3701   54.8372 C   0  0  0  0  0  0  0  0  0  0  0  0
   33.3015   35.1830   55.7358 C   0  0  0  0  0  0  0  0  0  0  0  0
   32.9240   35.5416   57.1500 C   0  0  0  0  0  0  0  0  0  0  0  0
   33.0486   36.8473   57.5872 C   0  0  0  0  0  0  0  0  0  0  0  0
   32.6983   37.1823   58.8819 C   0  0  0  0  0  0  0  0  0  0  0  0
   32.2318   36.2065   59.7479 C   0  0  0  0  0  0  0  0  0  0  0  0
   31.8924   36.5332   61.0237 O   0  0  0  0  0  0  0  0  0  0  0  0
   30.5375   36.9243   61.2546 C   0  0  0  0  0  0  0  0  0  0  0  0
   30.4847   37.8989   62.4026 C   0  0  0  0  0  0  0  0  0  0  0  0
   30.5793   39.0896   62.1923 O   0  0  0  0  0  0  0  0  0  0  0  0
   30.3322   37.4476   63.6634 N   0  0  0  0  0  0  0  0  0  0  0  0
   30.2808   38.3952   64.7795 C   0  0  0  0  0  0  0  0  0  0  0  0
   31.6957   38.6362   65.3095 C   0  0  0  0  0  0  0  0  0  0  0  0
   30.2178   36.0093   63.9177 C   0  0  0  0  0  0  0  0  0  0  0  0
   28.7451   35.5977   63.8648 C   0  0  0  0  0  0  0  0  0  0  0  0
   32.1117   34.8912   59.3096 C   0  0  0  0  0  0  0  0  0  0  0  0
   31.6539   33.9300   60.1557 O   0  0  0  0  0  0  0  0  0  0  0  0
   32.6283   33.2364   60.9376 C   0  0  0  0  0  0  0  0  0  0  0  0
   32.4592   34.5632   58.0089 C   0  0  0  0  0  0  0  0  0  0  0  0
   33.9000   37.7455   53.5282 H   0  0  0  0  0  0  0  0  0  0  0  0
   35.0561   36.4689   54.2583 H   0  0  0  0  0  0  0  0  0  0  0  0
   32.0784   36.7933   54.7477 H   0  0  0  0  0  0  0  0  0  0  0  0
   32.6908   34.3457   55.3978 H   0  0  0  0  0  0  0  0  0  0  0  0
   34.3541   34.9023   55.7008 H   0  0  0  0  0  0  0  0  0  0  0  0
   33.4166   37.6078   56.9145 H   0  0  0  0  0  0  0  0  0  0  0  0
   32.7928   38.2037   59.2196 H   0  0  0  0  0  0  0  0  0  0  0  0
   30.1380   37.3975   60.3574 H   0  0  0  0  0  0  0  0  0  0  0  0
   29.9416   36.0444   61.4972 H   0  0  0  0  0  0  0  0  0  0  0  0
   29.8558   39.3383   64.4361 H   0  0  0  0  0  0  0  0  0  0  0  0
   29.6594   37.9854   65.5759 H   0  0  0  0  0  0  0  0  0  0  0  0
   31.6574   39.3412   66.1398 H   0  0  0  0  0  0  0  0  0  0  0  0
   32.1206   37.6930   65.6529 H   0  0  0  0  0  0  0  0  0  0  0  0
   32.3169   39.0460   64.5132 H   0  0  0  0  0  0  0  0  0  0  0  0
   30.7759   35.4607   63.1590 H   0  0  0  0  0  0  0  0  0  0  0  0
   30.6236   35.7812   64.9033 H   0  0  0  0  0  0  0  0  0  0  0  0
   28.6599   34.5277   64.0540 H   0  0  0  0  0  0  0  0  0  0  0  0
   28.1871   36.1464   64.6235 H   0  0  0  0  0  0  0  0  0  0  0  0
   28.3393   35.8258   62.8793 H   0  0  0  0  0  0  0  0  0  0  0  0
   32.1308   32.4988   61.5674 H   0  0  0  0  0  0  0  0  0  0  0  0
   33.3334   32.7327   60.2763 H   0  0  0  0  0  0  0  0  0  0  0  0
   33.1640   33.9482   61.5655 H   0  0  0  0  0  0  0  0  0  0  0  0
   32.3667   33.5432   57.6661 H   0  0  0  0  0  0  0  0  0  0  0  0
  1  2  2  0  0  0  0
  1 21  1  0  0  0  0
  1 22  1  0  0  0  0
  2  3  1  0  0  0  0
  2 23  1  0  0  0  0
  3  4  1  0  0  0  0
  3 24  1  0  0  0  0
  3 25  1  0  0  0  0
  4 20  2  0  0  0  0
  4  5  1  0  0  0  0
  5  6  2  0  0  0  0
  5 26  1  0  0  0  0
  6  7  1  0  0  0  0
  6 27  1  0  0  0  0
  7  8  1  0  0  0  0
  7 17  2  0  0  0  0
  8  9  1  0  0  0  0
  9 10  1  0  0  0  0
  9 28  1  0  0  0  0
  9 29  1  0  0  0  0
 10 11  2  0  0  0  0
 10 12  1  0  0  0  0
 12 13  1  0  0  0  0
 12 15  1  0  0  0  0
 13 14  1  0  0  0  0
 13 30  1  0  0  0  0
 13 31  1  0  0  0  0
 14 32  1  0  0  0  0
 14 33  1  0  0  0  0
 14 34  1  0  0  0  0
 15 16  1  0  0  0  0
 15 35  1  0  0  0  0
 15 36  1  0  0  0  0
 16 37  1  0  0  0  0
 16 38  1  0  0  0  0
 16 39  1  0  0  0  0
 17 18  1  0  0  0  0
 17 20  1  0  0  0  0
 18 19  1  0  0  0  0
 19 40  1  0  0  0  0
 19 41  1  0  0  0  0
 19 42  1  0  0  0  0
 20 43  1  0  0  0  0
M  END
$$$$
