ZINC000000030349      none
 OpenBabel11202420163D

 31 31  0  0  1  0  0  0  0  0999 V2000
   30.7025   38.5505   65.0071 C   0  0  0  0  0  0  0  0  0  0  0  0
   29.4834   38.6736   64.0911 C   0  0  0  0  0  0  0  0  0  0  0  0
   29.8739   38.2756   62.6662 C   0  0  0  0  0  0  0  0  0  0  0  0
   30.3731   36.8293   62.6593 C   0  0  1  0  0  0  0  0  0  0  0  0
   31.2417   36.7417   63.3121 H   0  0  0  0  0  0  0  0  0  0  0  0
   29.2626   35.9042   63.1612 C   0  0  0  0  0  0  0  0  0  0  0  0
   30.7469   36.4482   61.2951 N   0  0  0  0  0  0  0  0  0  0  0  0
   32.0072   36.6477   60.8611 C   0  0  0  0  0  0  0  0  0  0  0  0
   32.8338   37.1439   61.6018 O   0  0  0  0  0  0  0  0  0  0  0  0
   32.3844   36.2632   59.4848 C   0  0  0  0  0  0  0  0  0  0  0  0
   32.8640   37.2257   58.5943 C   0  0  0  0  0  0  0  0  0  0  0  0
   33.2142   36.8603   57.3115 C   0  0  0  0  0  0  0  0  0  0  0  0
   33.0912   35.5429   56.9053 C   0  0  0  0  0  0  0  0  0  0  0  0
   32.6165   34.5838   57.7812 C   0  0  0  0  0  0  0  0  0  0  0  0
   32.2680   34.9344   59.0708 C   0  0  0  0  0  0  0  0  0  0  0  0
   31.6269   33.6205   60.2702 Br  0  0  0  0  0  0  0  0  0  0  0  0
   31.4935   39.2098   64.6497 H   0  0  0  0  0  0  0  0  0  0  0  0
   30.4243   38.8342   66.0223 H   0  0  0  0  0  0  0  0  0  0  0  0
   31.0582   37.5203   65.0022 H   0  0  0  0  0  0  0  0  0  0  0  0
   29.1276   39.7038   64.0960 H   0  0  0  0  0  0  0  0  0  0  0  0
   28.6923   38.0143   64.4485 H   0  0  0  0  0  0  0  0  0  0  0  0
   30.6649   38.9348   62.3088 H   0  0  0  0  0  0  0  0  0  0  0  0
   29.0052   38.3632   62.0136 H   0  0  0  0  0  0  0  0  0  0  0  0
   29.6181   34.8738   63.1564 H   0  0  0  0  0  0  0  0  0  0  0  0
   28.9844   36.1878   64.1762 H   0  0  0  0  0  0  0  0  0  0  0  0
   28.3939   35.9919   62.5086 H   0  0  0  0  0  0  0  0  0  0  0  0
   30.0874   36.0524   60.7042 H   0  0  0  0  0  0  0  0  0  0  0  0
   32.9609   38.2541   58.9097 H   0  0  0  0  0  0  0  0  0  0  0  0
   33.5849   37.6041   56.6219 H   0  0  0  0  0  0  0  0  0  0  0  0
   33.3669   35.2626   55.8994 H   0  0  0  0  0  0  0  0  0  0  0  0
   32.5227   33.5577   57.4577 H   0  0  0  0  0  0  0  0  0  0  0  0
  1  2  1  0  0  0  0
  1 17  1  0  0  0  0
  1 18  1  0  0  0  0
  1 19  1  0  0  0  0
  2  3  1  0  0  0  0
  2 20  1  0  0  0  0
  2 21  1  0  0  0  0
  3  4  1  0  0  0  0
  3 22  1  0  0  0  0
  3 23  1  0  0  0  0
  4  5  1  1  0  0  0
  4  6  1  0  0  0  0
  4  7  1  0  0  0  0
  6 24  1  0  0  0  0
  6 25  1  0  0  0  0
  6 26  1  0  0  0  0
  7  8  1  0  0  0  0
  7 27  1  0  0  0  0
  8  9  2  0  0  0  0
  8 10  1  0  0  0  0
 10 15  2  0  0  0  0
 10 11  1  0  0  0  0
 11 12  2  0  0  0  0
 11 28  1  0  0  0  0
 12 13  1  0  0  0  0
 12 29  1  0  0  0  0
 13 14  2  0  0  0  0
 13 30  1  0  0  0  0
 14 15  1  0  0  0  0
 14 31  1  0  0  0  0
 15 16  1  0  0  0  0
M  END
$$$$
