ZINC000000006300      none
 OpenBabel11202420153D

 38 40  0  0  0  0  0  0  0  0999 V2000
   27.9343   35.7176   63.3035 C   0  0  0  0  0  0  0  0  0  0  0  0
   28.5792   36.7327   62.3578 C   0  0  0  0  0  0  0  0  0  0  0  0
   30.0366   36.6679   62.4921 N   0  0  0  0  0  0  0  0  0  0  0  0
   30.6656   37.4473   63.3940 C   0  0  0  0  0  0  0  0  0  0  0  0
   32.1649   37.3805   63.5319 C   0  0  0  0  0  0  0  0  0  0  0  0
   30.0252   38.2022   64.0945 O   0  0  0  0  0  0  0  0  0  0  0  0
   30.7758   35.7967   61.6838 C   0  0  0  0  0  0  0  0  0  0  0  0
   31.0289   34.4985   62.1113 C   0  0  0  0  0  0  0  0  0  0  0  0
   31.7585   33.6340   61.3171 C   0  0  0  0  0  0  0  0  0  0  0  0
   32.2414   34.0540   60.0944 C   0  0  0  0  0  0  0  0  0  0  0  0
   31.9931   35.3563   59.6558 C   0  0  0  0  0  0  0  0  0  0  0  0
   32.5083   35.8088   58.3473 C   0  0  0  0  0  0  0  0  0  0  0  0
   32.6669   34.9148   57.3062 C   0  0  0  0  0  0  0  0  0  0  0  0
   33.1557   35.3768   56.0836 C   0  0  0  0  0  0  0  0  0  0  0  0
   33.4609   36.6473   55.9283 N   0  0  0  0  0  0  0  0  0  0  0  0
   33.3134   37.5219   56.9240 C   0  0  0  0  0  0  0  0  0  0  0  0
   33.5605   38.9049   57.0173 C   0  0  0  0  0  0  0  0  0  0  0  0
   34.0674   39.7518   55.9798 C   0  0  0  0  0  0  0  0  0  0  0  0
   34.4696   40.4237   55.1568 N   0  0  0  0  0  0  0  0  0  0  0  0
   33.2000   39.2992   58.3177 C   0  0  0  0  0  0  0  0  0  0  0  0
   32.7809   38.2489   58.9744 N   0  0  0  0  0  0  0  0  0  0  0  0
   32.8332   37.1264   58.1415 N   0  0  0  0  0  0  0  0  0  0  0  0
   31.2563   36.2287   60.4578 C   0  0  0  0  0  0  0  0  0  0  0  0
   26.8500   35.7656   63.2036 H   0  0  0  0  0  0  0  0  0  0  0  0
   28.2784   34.7149   63.0499 H   0  0  0  0  0  0  0  0  0  0  0  0
   28.2151   35.9489   64.3311 H   0  0  0  0  0  0  0  0  0  0  0  0
   28.2352   37.7354   62.6115 H   0  0  0  0  0  0  0  0  0  0  0  0
   28.2984   36.5014   61.3303 H   0  0  0  0  0  0  0  0  0  0  0  0
   32.6272   38.0350   62.7931 H   0  0  0  0  0  0  0  0  0  0  0  0
   32.4522   37.7024   64.5329 H   0  0  0  0  0  0  0  0  0  0  0  0
   32.4994   36.3558   63.3697 H   0  0  0  0  0  0  0  0  0  0  0  0
   30.6542   34.1641   63.0674 H   0  0  0  0  0  0  0  0  0  0  0  0
   31.9516   32.6263   61.6545 H   0  0  0  0  0  0  0  0  0  0  0  0
   32.8110   33.3755   59.4766 H   0  0  0  0  0  0  0  0  0  0  0  0
   32.4155   33.8725   57.4366 H   0  0  0  0  0  0  0  0  0  0  0  0
   33.2844   34.6886   55.2612 H   0  0  0  0  0  0  0  0  0  0  0  0
   33.2671   40.3024   58.7122 H   0  0  0  0  0  0  0  0  0  0  0  0
   31.0646   37.2386   60.1262 H   0  0  0  0  0  0  0  0  0  0  0  0
  1  2  1  0  0  0  0
  1 24  1  0  0  0  0
  1 25  1  0  0  0  0
  1 26  1  0  0  0  0
  2  3  1  0  0  0  0
  2 27  1  0  0  0  0
  2 28  1  0  0  0  0
  3  4  1  0  0  0  0
  3  7  1  0  0  0  0
  4  5  1  0  0  0  0
  4  6  2  0  0  0  0
  5 29  1  0  0  0  0
  5 30  1  0  0  0  0
  5 31  1  0  0  0  0
  7 23  2  0  0  0  0
  7  8  1  0  0  0  0
  8  9  2  0  0  0  0
  8 32  1  0  0  0  0
  9 10  1  0  0  0  0
  9 33  1  0  0  0  0
 10 11  2  0  0  0  0
 10 34  1  0  0  0  0
 11 12  1  0  0  0  0
 11 23  1  0  0  0  0
 12 22  1  0  0  0  0
 12 13  2  0  0  0  0
 13 14  1  0  0  0  0
 13 35  1  0  0  0  0
 14 15  2  0  0  0  0
 14 36  1  0  0  0  0
 15 16  1  0  0  0  0
 16 22  1  0  0  0  0
 16 17  2  0  0  0  0
 17 18  1  0  0  0  0
 17 20  1  0  0  0  0
 18 19  3  0  0  0  0
 20 21  2  0  0  0  0
 20 37  1  0  0  0  0
 21 22  1  0  0  0  0
 23 38  1  0  0  0  0
M  END
$$$$
