ZINC000000052913      none
 OpenBabel11202420153D

 45 48  0  0  0  0  0  0  0  0999 V2000
   32.8435   34.9474   61.8461 O   0  0  0  0  0  0  0  0  0  0  0  0
   32.0677   35.8288   61.5255 C   0  0  0  0  0  0  0  0  0  0  0  0
   32.3404   36.6511   60.3431 C   0  0  0  0  0  0  0  0  0  0  0  0
   32.4703   36.1858   59.0706 C   0  0  0  0  0  0  0  0  0  0  0  0
   32.7260   37.1694   58.1331 C   0  0  0  0  0  0  0  0  0  0  0  0
   32.8003   38.4160   58.6523 C   0  0  0  0  0  0  0  0  0  0  0  0
   32.5508   38.3945   60.3414 S   0  0  0  0  0  0  0  0  0  0  0  0
   33.0703   39.6674   57.8382 C   0  0  0  0  0  0  0  0  0  0  0  0
   33.6418   39.2560   56.4787 C   0  0  0  0  0  0  0  0  0  0  0  0
   32.7421   38.1792   55.8653 C   0  0  0  0  0  0  0  0  0  0  0  0
   32.9084   36.8765   56.6493 C   0  0  0  0  0  0  0  0  0  0  0  0
   30.9576   36.0485   62.2578 N   0  0  0  0  0  0  0  0  0  0  0  0
   30.6619   35.2308   63.4442 C   0  0  0  0  0  0  0  0  0  0  0  0
   30.3730   36.1761   64.6211 C   0  0  0  0  0  0  0  0  0  0  0  0
   29.3135   37.1183   64.2369 N   0  0  0  0  0  0  0  0  0  0  0  0
   28.9049   37.8852   65.3306 C   0  0  0  0  0  0  0  0  0  0  0  0
   28.3780   37.2660   66.4569 C   0  0  0  0  0  0  0  0  0  0  0  0
   27.9795   38.0269   67.5383 C   0  0  0  0  0  0  0  0  0  0  0  0
   28.0946   39.4043   67.4966 C   0  0  0  0  0  0  0  0  0  0  0  0
   28.6138   40.0243   66.3749 C   0  0  0  0  0  0  0  0  0  0  0  0
   29.0192   39.2691   65.2919 C   0  0  0  0  0  0  0  0  0  0  0  0
   29.7408   37.9755   63.1232 C   0  0  0  0  0  0  0  0  0  0  0  0
   30.0070   37.1081   61.8883 C   0  0  0  0  0  0  0  0  0  0  0  0
   32.3773   35.1405   58.8150 H   0  0  0  0  0  0  0  0  0  0  0  0
   32.1401   40.2165   57.6925 H   0  0  0  0  0  0  0  0  0  0  0  0
   33.7902   40.2960   58.3622 H   0  0  0  0  0  0  0  0  0  0  0  0
   33.6744   40.1233   55.8192 H   0  0  0  0  0  0  0  0  0  0  0  0
   34.6481   38.8587   56.6112 H   0  0  0  0  0  0  0  0  0  0  0  0
   31.7024   38.5027   55.9135 H   0  0  0  0  0  0  0  0  0  0  0  0
   33.0252   38.0176   54.8251 H   0  0  0  0  0  0  0  0  0  0  0  0
   33.9055   36.4716   56.4767 H   0  0  0  0  0  0  0  0  0  0  0  0
   32.1580   36.1558   56.3244 H   0  0  0  0  0  0  0  0  0  0  0  0
   29.7903   34.6058   63.2500 H   0  0  0  0  0  0  0  0  0  0  0  0
   31.5213   34.6029   63.6796 H   0  0  0  0  0  0  0  0  0  0  0  0
   31.2765   36.7295   64.8771 H   0  0  0  0  0  0  0  0  0  0  0  0
   30.0467   35.5932   65.4825 H   0  0  0  0  0  0  0  0  0  0  0  0
   28.2837   36.1906   66.4884 H   0  0  0  0  0  0  0  0  0  0  0  0
   27.5735   37.5459   68.4159 H   0  0  0  0  0  0  0  0  0  0  0  0
   27.7786   39.9972   68.3422 H   0  0  0  0  0  0  0  0  0  0  0  0
   28.7027   41.1002   66.3456 H   0  0  0  0  0  0  0  0  0  0  0  0
   29.4243   39.7538   64.4160 H   0  0  0  0  0  0  0  0  0  0  0  0
   30.6531   38.5038   63.4000 H   0  0  0  0  0  0  0  0  0  0  0  0
   28.9560   38.6976   62.8980 H   0  0  0  0  0  0  0  0  0  0  0  0
   30.4330   37.7217   61.0946 H   0  0  0  0  0  0  0  0  0  0  0  0
   29.0736   36.6600   61.5475 H   0  0  0  0  0  0  0  0  0  0  0  0
  1  2  2  0  0  0  0
  2  3  1  0  0  0  0
  2 12  1  0  0  0  0
  3  7  1  0  0  0  0
  3  4  2  0  0  0  0
  4  5  1  0  0  0  0
  4 24  1  0  0  0  0
  5 11  1  0  0  0  0
  5  6  2  0  0  0  0
  6  7  1  0  0  0  0
  6  8  1  0  0  0  0
  8  9  1  0  0  0  0
  8 25  1  0  0  0  0
  8 26  1  0  0  0  0
  9 10  1  0  0  0  0
  9 27  1  0  0  0  0
  9 28  1  0  0  0  0
 10 11  1  0  0  0  0
 10 29  1  0  0  0  0
 10 30  1  0  0  0  0
 11 31  1  0  0  0  0
 11 32  1  0  0  0  0
 12 23  1  0  0  0  0
 12 13  1  0  0  0  0
 13 14  1  0  0  0  0
 13 33  1  0  0  0  0
 13 34  1  0  0  0  0
 14 15  1  0  0  0  0
 14 35  1  0  0  0  0
 14 36  1  0  0  0  0
 15 16  1  0  0  0  0
 15 22  1  0  0  0  0
 16 21  2  0  0  0  0
 16 17  1  0  0  0  0
 17 18  2  0  0  0  0
 17 37  1  0  0  0  0
 18 19  1  0  0  0  0
 18 38  1  0  0  0  0
 19 20  2  0  0  0  0
 19 39  1  0  0  0  0
 20 21  1  0  0  0  0
 20 40  1  0  0  0  0
 21 41  1  0  0  0  0
 22 23  1  0  0  0  0
 22 42  1  0  0  0  0
 22 43  1  0  0  0  0
 23 44  1  0  0  0  0
 23 45  1  0  0  0  0
M  END
$$$$
