ZINC000000038122      none
 OpenBabel11202420153D

 36 38  0  0  1  0  0  0  0  0999 V2000
   32.0980   34.9299   58.8558 C   0  0  0  0  0  0  0  0  0  0  0  0
   31.6231   35.3663   60.2179 C   0  0  0  0  0  0  0  0  0  0  0  0
   31.0280   36.5659   60.3576 C   0  0  0  0  0  0  0  0  0  0  0  0
   30.5802   36.9827   61.6310 C   0  0  0  0  0  0  0  0  0  0  0  0
   29.9799   38.1854   61.7920 O   0  0  0  0  0  0  0  0  0  0  0  0
   30.7675   36.1382   62.7103 C   0  0  0  0  0  0  0  0  0  0  0  0
   30.3063   36.5403   64.0874 C   0  0  1  0  0  0  0  0  0  0  0  0
   29.4369   37.1924   64.0033 H   0  0  0  0  0  0  0  0  0  0  0  0
   29.9307   35.2898   64.8849 C   0  0  0  0  0  0  0  0  0  0  0  0
   28.8509   34.5778   64.1968 N   0  0  0  0  0  0  0  0  0  0  0  0
   28.0455   35.1961   63.5244 O   0  0  0  0  0  0  0  0  0  0  0  0
   28.7588   33.3675   64.2973 O   0  0  0  0  0  0  0  0  0  0  0  0
   31.4170   37.2728   64.7952 C   0  0  0  0  0  0  0  0  0  0  0  0
   32.6267   36.6420   65.0181 C   0  0  0  0  0  0  0  0  0  0  0  0
   33.6508   37.3119   65.6613 C   0  0  0  0  0  0  0  0  0  0  0  0
   33.4624   38.6141   66.0951 C   0  0  0  0  0  0  0  0  0  0  0  0
   32.2418   39.2476   65.8756 C   0  0  0  0  0  0  0  0  0  0  0  0
   31.2220   38.5721   65.2252 C   0  0  0  0  0  0  0  0  0  0  0  0
   32.3066   40.5101   66.3907 O   0  0  0  0  0  0  0  0  0  0  0  0
   33.4337   40.5022   67.2867 C   0  0  0  0  0  0  0  0  0  0  0  0
   34.2920   39.4796   66.7477 O   0  0  0  0  0  0  0  0  0  0  0  0
   31.3984   34.9056   62.5021 C   0  0  0  0  0  0  0  0  0  0  0  0
   31.5787   34.1477   63.4411 O   0  0  0  0  0  0  0  0  0  0  0  0
   31.8011   34.5532   61.2690 O   0  0  0  0  0  0  0  0  0  0  0  0
   33.1270   35.2574   58.7077 H   0  0  0  0  0  0  0  0  0  0  0  0
   32.0488   33.8433   58.7848 H   0  0  0  0  0  0  0  0  0  0  0  0
   31.4618   35.3733   58.0899 H   0  0  0  0  0  0  0  0  0  0  0  0
   30.8936   37.2073   59.4992 H   0  0  0  0  0  0  0  0  0  0  0  0
   29.3317   38.2086   62.5094 H   0  0  0  0  0  0  0  0  0  0  0  0
   29.5972   35.5808   65.8810 H   0  0  0  0  0  0  0  0  0  0  0  0
   30.8001   34.6378   64.9690 H   0  0  0  0  0  0  0  0  0  0  0  0
   32.7737   35.6252   64.6851 H   0  0  0  0  0  0  0  0  0  0  0  0
   34.5965   36.8180   65.8302 H   0  0  0  0  0  0  0  0  0  0  0  0
   30.2744   39.0610   65.0535 H   0  0  0  0  0  0  0  0  0  0  0  0
   33.1177   40.2435   68.2973 H   0  0  0  0  0  0  0  0  0  0  0  0
   33.9372   41.4689   67.2775 H   0  0  0  0  0  0  0  0  0  0  0  0
  1  2  1  0  0  0  0
  1 25  1  0  0  0  0
  1 26  1  0  0  0  0
  1 27  1  0  0  0  0
  2 24  1  0  0  0  0
  2  3  2  0  0  0  0
  3  4  1  0  0  0  0
  3 28  1  0  0  0  0
  4  5  1  0  0  0  0
  4  6  2  0  0  0  0
  5 29  1  0  0  0  0
  6  7  1  0  0  0  0
  6 22  1  0  0  0  0
  7  8  1  6  0  0  0
  7  9  1  0  0  0  0
  7 13  1  0  0  0  0
  9 10  1  0  0  0  0
  9 30  1  0  0  0  0
  9 31  1  0  0  0  0
 10 11  2  0  0  0  0
 10 12  2  0  0  0  0
 13 18  2  0  0  0  0
 13 14  1  0  0  0  0
 14 15  2  0  0  0  0
 14 32  1  0  0  0  0
 15 16  1  0  0  0  0
 15 33  1  0  0  0  0
 16 21  1  0  0  0  0
 16 17  2  0  0  0  0
 17 18  1  0  0  0  0
 17 19  1  0  0  0  0
 18 34  1  0  0  0  0
 19 20  1  0  0  0  0
 20 21  1  0  0  0  0
 20 35  1  0  0  0  0
 20 36  1  0  0  0  0
 22 23  2  0  0  0  0
 22 24  1  0  0  0  0
M  END
$$$$
