ZINC000000036134      none
 OpenBabel11202420153D

 25 26  0  0  0  0  0  0  0  0999 V2000
   31.1102   39.6015   65.3506 N   0  0  0  0  0  0  0  0  0  0  0  0
   30.6445   39.0098   64.1824 C   0  0  0  0  0  0  0  0  0  0  0  0
   29.4631   39.1753   63.6763 N   0  0  0  0  0  0  0  0  0  0  0  0
   29.2159   38.4940   62.5048 N   0  0  0  0  0  0  0  0  0  0  0  0
   30.1934   37.7660   62.0630 C   0  0  0  0  0  0  0  0  0  0  0  0
   30.1567   36.7875   60.5982 S   0  0  0  0  0  0  0  0  0  0  0  0
   31.8096   36.0408   60.5648 C   0  0  0  0  0  0  0  0  0  0  0  0
   32.1236   35.5781   59.1654 C   0  0  0  0  0  0  0  0  0  0  0  0
   32.7510   36.4335   58.2788 C   0  0  0  0  0  0  0  0  0  0  0  0
   33.0390   36.0092   56.9954 C   0  0  0  0  0  0  0  0  0  0  0  0
   32.7000   34.7290   56.5983 C   0  0  0  0  0  0  0  0  0  0  0  0
   32.0736   33.8735   57.4848 C   0  0  0  0  0  0  0  0  0  0  0  0
   31.7895   34.2965   58.7700 C   0  0  0  0  0  0  0  0  0  0  0  0
   31.1232   33.3787   59.7210 N   0  0  0  0  0  0  0  0  0  0  0  0
   30.8693   33.7528   60.8521 O   0  0  0  0  0  0  0  0  0  0  0  0
   30.8287   32.2494   59.3728 O   0  0  0  0  0  0  0  0  0  0  0  0
   31.5657   37.9161   63.1554 S   0  0  0  0  0  0  0  0  0  0  0  0
   32.0122   39.4219   65.6590 H   0  0  0  0  0  0  0  0  0  0  0  0
   30.5335   40.1940   65.8575 H   0  0  0  0  0  0  0  0  0  0  0  0
   32.5481   36.7789   60.8777 H   0  0  0  0  0  0  0  0  0  0  0  0
   31.8372   35.1887   61.2440 H   0  0  0  0  0  0  0  0  0  0  0  0
   33.0158   37.4336   58.5891 H   0  0  0  0  0  0  0  0  0  0  0  0
   33.5284   36.6777   56.3026 H   0  0  0  0  0  0  0  0  0  0  0  0
   32.9244   34.3976   55.5951 H   0  0  0  0  0  0  0  0  0  0  0  0
   31.8085   32.8736   57.1744 H   0  0  0  0  0  0  0  0  0  0  0  0
  1  2  1  0  0  0  0
  1 18  1  0  0  0  0
  1 19  1  0  0  0  0
  2 17  1  0  0  0  0
  2  3  2  0  0  0  0
  3  4  1  0  0  0  0
  4  5  2  0  0  0  0
  5  6  1  0  0  0  0
  5 17  1  0  0  0  0
  6  7  1  0  0  0  0
  7  8  1  0  0  0  0
  7 20  1  0  0  0  0
  7 21  1  0  0  0  0
  8 13  2  0  0  0  0
  8  9  1  0  0  0  0
  9 10  2  0  0  0  0
  9 22  1  0  0  0  0
 10 11  1  0  0  0  0
 10 23  1  0  0  0  0
 11 12  2  0  0  0  0
 11 24  1  0  0  0  0
 12 13  1  0  0  0  0
 12 25  1  0  0  0  0
 13 14  1  0  0  0  0
 14 15  2  0  0  0  0
 14 16  2  0  0  0  0
M  END
$$$$
