ZINC000000031481      none
 OpenBabel11202420163D

 33 34  0  0  0  0  0  0  0  0999 V2000
   34.6890   40.9906   59.2637 C   0  0  0  0  0  0  0  0  0  0  0  0
   33.4585   40.6367   58.6293 O   0  0  0  0  0  0  0  0  0  0  0  0
   33.3660   39.3793   58.1194 C   0  0  0  0  0  0  0  0  0  0  0  0
   33.7468   39.1312   56.8107 C   0  0  0  0  0  0  0  0  0  0  0  0
   33.6535   37.8525   56.2937 C   0  0  0  0  0  0  0  0  0  0  0  0
   33.1795   36.8172   57.0802 C   0  0  0  0  0  0  0  0  0  0  0  0
   33.0653   35.2138   56.4249 Cl  0  0  0  0  0  0  0  0  0  0  0  0
   32.8020   37.0563   58.3890 C   0  0  0  0  0  0  0  0  0  0  0  0
   32.8889   38.3381   58.9122 C   0  0  0  0  0  0  0  0  0  0  0  0
   32.5029   38.5837   60.2367 N   0  0  0  0  0  0  0  0  0  0  0  0
   31.5348   37.8387   60.8056 C   0  0  0  0  0  0  0  0  0  0  0  0
   30.9973   36.9555   60.1713 O   0  0  0  0  0  0  0  0  0  0  0  0
   31.1195   38.1029   62.2301 C   0  0  0  0  0  0  0  0  0  0  0  0
   32.1312   37.0975   63.3511 S   0  0  0  0  0  0  0  0  0  0  0  0
   31.2009   35.6081   63.4960 C   0  0  0  0  0  0  0  0  0  0  0  0
   31.7686   34.3991   63.1036 C   0  0  0  0  0  0  0  0  0  0  0  0
   31.0272   33.2382   63.2229 C   0  0  0  0  0  0  0  0  0  0  0  0
   29.7378   33.3242   63.7323 C   0  0  0  0  0  0  0  0  0  0  0  0
   29.2354   34.5571   64.0965 C   0  0  0  0  0  0  0  0  0  0  0  0
   29.9673   35.6486   63.9768 N   0  0  0  0  0  0  0  0  0  0  0  0
   34.6293   42.0173   59.6248 H   0  0  0  0  0  0  0  0  0  0  0  0
   34.8708   40.3200   60.1034 H   0  0  0  0  0  0  0  0  0  0  0  0
   35.5054   40.9045   58.5466 H   0  0  0  0  0  0  0  0  0  0  0  0
   34.1171   39.9370   56.1943 H   0  0  0  0  0  0  0  0  0  0  0  0
   33.9514   37.6609   55.2734 H   0  0  0  0  0  0  0  0  0  0  0  0
   32.4364   36.2460   59.0024 H   0  0  0  0  0  0  0  0  0  0  0  0
   32.9327   39.2900   60.7440 H   0  0  0  0  0  0  0  0  0  0  0  0
   30.0688   37.8423   62.3566 H   0  0  0  0  0  0  0  0  0  0  0  0
   31.2624   39.1587   62.4602 H   0  0  0  0  0  0  0  0  0  0  0  0
   32.7743   34.3685   62.7112 H   0  0  0  0  0  0  0  0  0  0  0  0
   31.4415   32.2857   62.9270 H   0  0  0  0  0  0  0  0  0  0  0  0
   29.1328   32.4359   63.8381 H   0  0  0  0  0  0  0  0  0  0  0  0
   28.2317   34.6289   64.4888 H   0  0  0  0  0  0  0  0  0  0  0  0
  1  2  1  0  0  0  0
  1 21  1  0  0  0  0
  1 22  1  0  0  0  0
  1 23  1  0  0  0  0
  2  3  1  0  0  0  0
  3  9  2  0  0  0  0
  3  4  1  0  0  0  0
  4  5  2  0  0  0  0
  4 24  1  0  0  0  0
  5  6  1  0  0  0  0
  5 25  1  0  0  0  0
  6  7  1  0  0  0  0
  6  8  2  0  0  0  0
  8  9  1  0  0  0  0
  8 26  1  0  0  0  0
  9 10  1  0  0  0  0
 10 11  1  0  0  0  0
 10 27  1  0  0  0  0
 11 12  2  0  0  0  0
 11 13  1  0  0  0  0
 13 14  1  0  0  0  0
 13 28  1  0  0  0  0
 13 29  1  0  0  0  0
 14 15  1  0  0  0  0
 15 20  2  0  0  0  0
 15 16  1  0  0  0  0
 16 17  2  0  0  0  0
 16 30  1  0  0  0  0
 17 18  1  0  0  0  0
 17 31  1  0  0  0  0
 18 19  2  0  0  0  0
 18 32  1  0  0  0  0
 19 20  1  0  0  0  0
 19 33  1  0  0  0  0
M  END
$$$$
