ZINC000000030207      none
 OpenBabel11202420163D

 25 27  0  0  0  0  0  0  0  0999 V2000
   33.4091   35.4881   55.7101 O   0  0  0  0  0  0  0  0  0  0  0  0
   33.3206   36.2782   56.6300 C   0  0  0  0  0  0  0  0  0  0  0  0
   33.7097   37.5573   56.4593 N   0  0  0  0  0  0  0  0  0  0  0  0
   34.2119   37.9727   55.2327 C   0  0  0  0  0  0  0  0  0  0  0  0
   34.6130   39.1757   54.9633 N   0  0  0  0  0  0  0  0  0  0  0  0
   35.0656   39.3954   53.7431 C   0  0  0  0  0  0  0  0  0  0  0  0
   35.0375   38.3296   52.9406 C   0  0  0  0  0  0  0  0  0  0  0  0
   34.3845   36.9735   53.8561 S   0  0  0  0  0  0  0  0  0  0  0  0
   32.7872   35.8370   57.9331 C   0  0  0  0  0  0  0  0  0  0  0  0
   32.1611   36.7545   58.7807 C   0  0  0  0  0  0  0  0  0  0  0  0
   31.6589   36.3396   59.9945 C   0  0  0  0  0  0  0  0  0  0  0  0
   31.7812   35.0125   60.3847 C   0  0  0  0  0  0  0  0  0  0  0  0
   32.4053   34.0912   59.5427 C   0  0  0  0  0  0  0  0  0  0  0  0
   32.9065   34.5003   58.3224 C   0  0  0  0  0  0  0  0  0  0  0  0
   32.3921   32.8682   60.1498 O   0  0  0  0  0  0  0  0  0  0  0  0
   32.1219   33.1324   61.5390 C   0  0  0  0  0  0  0  0  0  0  0  0
   31.3788   34.3652   61.5154 O   0  0  0  0  0  0  0  0  0  0  0  0
   33.6391   38.1878   57.1931 H   0  0  0  0  0  0  0  0  0  0  0  0
   35.4255   40.3608   53.4190 H   0  0  0  0  0  0  0  0  0  0  0  0
   35.3586   38.3031   51.9098 H   0  0  0  0  0  0  0  0  0  0  0  0
   32.0672   37.7883   58.4823 H   0  0  0  0  0  0  0  0  0  0  0  0
   31.1709   37.0493   60.6461 H   0  0  0  0  0  0  0  0  0  0  0  0
   33.3895   33.7880   57.6700 H   0  0  0  0  0  0  0  0  0  0  0  0
   33.0523   33.2569   62.0931 H   0  0  0  0  0  0  0  0  0  0  0  0
   31.5218   32.3318   61.9714 H   0  0  0  0  0  0  0  0  0  0  0  0
  1  2  2  0  0  0  0
  2  3  1  0  0  0  0
  2  9  1  0  0  0  0
  3  4  1  0  0  0  0
  3 18  1  0  0  0  0
  4  8  1  0  0  0  0
  4  5  2  0  0  0  0
  5  6  1  0  0  0  0
  6  7  2  0  0  0  0
  6 19  1  0  0  0  0
  7  8  1  0  0  0  0
  7 20  1  0  0  0  0
  9 14  2  0  0  0  0
  9 10  1  0  0  0  0
 10 11  2  0  0  0  0
 10 21  1  0  0  0  0
 11 12  1  0  0  0  0
 11 22  1  0  0  0  0
 12 17  1  0  0  0  0
 12 13  2  0  0  0  0
 13 14  1  0  0  0  0
 13 15  1  0  0  0  0
 14 23  1  0  0  0  0
 15 16  1  0  0  0  0
 16 17  1  0  0  0  0
 16 24  1  0  0  0  0
 16 25  1  0  0  0  0
M  END
$$$$
