ZINC000000027610      none
 OpenBabel11202420153D

 26 28  0  0  0  0  0  0  0  0999 V2000
   31.0558   37.1109   60.1173 O   0  0  0  0  0  0  0  0  0  0  0  0
   31.5603   38.0337   60.7298 C   0  0  0  0  0  0  0  0  0  0  0  0
   32.5007   38.7991   60.1411 N   0  0  0  0  0  0  0  0  0  0  0  0
   32.8971   38.5325   58.8251 C   0  0  0  0  0  0  0  0  0  0  0  0
   32.8529   37.2336   58.3362 C   0  0  0  0  0  0  0  0  0  0  0  0
   33.2430   36.9691   57.0374 C   0  0  0  0  0  0  0  0  0  0  0  0
   33.6798   37.9986   56.2192 C   0  0  0  0  0  0  0  0  0  0  0  0
   33.7207   39.3033   56.7052 C   0  0  0  0  0  0  0  0  0  0  0  0
   33.3340   39.5667   58.0087 C   0  0  0  0  0  0  0  0  0  0  0  0
   34.1863   40.1225   55.7174 O   0  0  0  0  0  0  0  0  0  0  0  0
   34.8080   39.2514   54.7541 C   0  0  0  0  0  0  0  0  0  0  0  0
   34.1122   38.0023   54.9235 O   0  0  0  0  0  0  0  0  0  0  0  0
   31.1451   38.3129   62.1081 C   0  0  0  0  0  0  0  0  0  0  0  0
   31.7011   37.7820   63.2367 C   0  0  0  0  0  0  0  0  0  0  0  0
   30.9997   38.3237   64.3252 C   0  0  0  0  0  0  0  0  0  0  0  0
   30.0522   39.1438   63.8195 C   0  0  0  0  0  0  0  0  0  0  0  0
   30.1430   39.1346   62.4832 O   0  0  0  0  0  0  0  0  0  0  0  0
   32.9027   39.5346   60.6293 H   0  0  0  0  0  0  0  0  0  0  0  0
   32.5129   36.4292   58.9716 H   0  0  0  0  0  0  0  0  0  0  0  0
   33.2078   35.9581   56.6591 H   0  0  0  0  0  0  0  0  0  0  0  0
   33.3683   40.5772   58.3885 H   0  0  0  0  0  0  0  0  0  0  0  0
   35.8688   39.1318   54.9745 H   0  0  0  0  0  0  0  0  0  0  0  0
   34.6665   39.6347   53.7437 H   0  0  0  0  0  0  0  0  0  0  0  0
   32.5228   37.0828   63.2830 H   0  0  0  0  0  0  0  0  0  0  0  0
   31.1803   38.1199   65.3704 H   0  0  0  0  0  0  0  0  0  0  0  0
   29.3390   39.7127   64.3975 H   0  0  0  0  0  0  0  0  0  0  0  0
  1  2  2  0  0  0  0
  2  3  1  0  0  0  0
  2 13  1  0  0  0  0
  3  4  1  0  0  0  0
  3 18  1  0  0  0  0
  4  9  2  0  0  0  0
  4  5  1  0  0  0  0
  5  6  2  0  0  0  0
  5 19  1  0  0  0  0
  6  7  1  0  0  0  0
  6 20  1  0  0  0  0
  7 12  1  0  0  0  0
  7  8  2  0  0  0  0
  8  9  1  0  0  0  0
  8 10  1  0  0  0  0
  9 21  1  0  0  0  0
 10 11  1  0  0  0  0
 11 12  1  0  0  0  0
 11 22  1  0  0  0  0
 11 23  1  0  0  0  0
 13 17  1  0  0  0  0
 13 14  2  0  0  0  0
 14 15  1  0  0  0  0
 14 24  1  0  0  0  0
 15 16  2  0  0  0  0
 15 25  1  0  0  0  0
 16 17  1  0  0  0  0
 16 26  1  0  0  0  0
M  END
$$$$
