ZINC000000058069      none
 OpenBabel11202420153D

 28 30  0  0  0  0  0  0  0  0999 V2000
   31.7043   35.2533   60.8376 O   0  0  0  0  0  0  0  0  0  0  0  0
   32.0856   36.1652   60.1272 C   0  0  0  0  0  0  0  0  0  0  0  0
   32.4691   35.9150   58.8639 O   0  0  0  0  0  0  0  0  0  0  0  0
   32.8967   36.9070   58.0527 C   0  0  0  0  0  0  0  0  0  0  0  0
   33.2866   36.6182   56.7522 C   0  0  0  0  0  0  0  0  0  0  0  0
   33.7241   37.6350   55.9201 C   0  0  0  0  0  0  0  0  0  0  0  0
   34.1041   37.3490   54.6487 O   0  0  0  0  0  0  0  0  0  0  0  0
   33.7767   38.9502   56.3787 C   0  0  0  0  0  0  0  0  0  0  0  0
   33.3973   39.2526   57.6529 C   0  0  0  0  0  0  0  0  0  0  0  0
   32.9515   38.2357   58.5111 C   0  0  0  0  0  0  0  0  0  0  0  0
   32.5516   38.5455   59.8363 C   0  0  0  0  0  0  0  0  0  0  0  0
   32.1246   37.5323   60.6520 C   0  0  0  0  0  0  0  0  0  0  0  0
   31.7023   37.8155   62.0437 C   0  0  0  0  0  0  0  0  0  0  0  0
   30.6434   38.6889   62.2899 C   0  0  0  0  0  0  0  0  0  0  0  0
   30.2550   38.9491   63.5881 C   0  0  0  0  0  0  0  0  0  0  0  0
   30.9137   38.3454   64.6444 C   0  0  0  0  0  0  0  0  0  0  0  0
   31.9647   37.4781   64.4065 C   0  0  0  0  0  0  0  0  0  0  0  0
   32.3624   37.2100   63.1126 C   0  0  0  0  0  0  0  0  0  0  0  0
   33.2483   35.6017   56.3894 H   0  0  0  0  0  0  0  0  0  0  0  0
   34.0340   36.4124   54.4185 H   0  0  0  0  0  0  0  0  0  0  0  0
   34.1197   39.7348   55.7205 H   0  0  0  0  0  0  0  0  0  0  0  0
   33.4399   40.2738   58.0014 H   0  0  0  0  0  0  0  0  0  0  0  0
   32.5859   39.5630   60.1966 H   0  0  0  0  0  0  0  0  0  0  0  0
   30.1283   39.1606   61.4662 H   0  0  0  0  0  0  0  0  0  0  0  0
   29.4379   39.6288   63.7803 H   0  0  0  0  0  0  0  0  0  0  0  0
   30.6062   38.5524   65.6588 H   0  0  0  0  0  0  0  0  0  0  0  0
   32.4755   37.0100   65.2351 H   0  0  0  0  0  0  0  0  0  0  0  0
   33.1829   36.5324   62.9280 H   0  0  0  0  0  0  0  0  0  0  0  0
  1  2  2  0  0  0  0
  2 12  1  0  0  0  0
  2  3  1  0  0  0  0
  3  4  1  0  0  0  0
  4 10  2  0  0  0  0
  4  5  1  0  0  0  0
  5  6  2  0  0  0  0
  5 19  1  0  0  0  0
  6  7  1  0  0  0  0
  6  8  1  0  0  0  0
  7 20  1  0  0  0  0
  8  9  2  0  0  0  0
  8 21  1  0  0  0  0
  9 10  1  0  0  0  0
  9 22  1  0  0  0  0
 10 11  1  0  0  0  0
 11 12  2  0  0  0  0
 11 23  1  0  0  0  0
 12 13  1  0  0  0  0
 13 18  2  0  0  0  0
 13 14  1  0  0  0  0
 14 15  2  0  0  0  0
 14 24  1  0  0  0  0
 15 16  1  0  0  0  0
 15 25  1  0  0  0  0
 16 17  2  0  0  0  0
 16 26  1  0  0  0  0
 17 18  1  0  0  0  0
 17 27  1  0  0  0  0
 18 28  1  0  0  0  0
M  END
$$$$
