ZINC000000019389      none
 OpenBabel11202420153D

 22 23  0  0  1  0  0  0  0  0999 V2000
   35.3964   39.8443   52.5666 C   0  0  0  0  0  0  0  0  0  0  0  0
   34.8386   39.4097   53.8974 C   0  0  0  0  0  0  0  0  0  0  0  0
   34.6286   40.2495   54.8909 N   0  0  0  0  0  0  0  0  0  0  0  0
   34.1534   39.7587   55.9856 C   0  0  0  0  0  0  0  0  0  0  0  0
   33.9136   38.0739   55.8208 S   0  0  0  0  0  0  0  0  0  0  0  0
   34.5128   38.1416   54.1652 C   0  0  0  0  0  0  0  0  0  0  0  0
   34.6413   36.9746   53.2204 C   0  0  2  0  0  0  0  0  0  0  0  0
   35.6846   36.8573   52.9277 H   0  0  0  0  0  0  0  0  0  0  0  0
   33.8444   37.2126   52.0583 O   0  0  0  0  0  0  0  0  0  0  0  0
   34.1675   35.7189   53.9057 C   0  0  0  0  0  0  0  0  0  0  0  0
   32.8509   35.2945   53.8551 C   0  0  0  0  0  0  0  0  0  0  0  0
   32.6005   34.1600   54.5105 C   0  0  0  0  0  0  0  0  0  0  0  0
   34.0813   33.5681   55.2522 S   0  0  0  0  0  0  0  0  0  0  0  0
   34.9840   34.9349   54.6114 C   0  0  0  0  0  0  0  0  0  0  0  0
   34.5776   40.1216   51.9025 H   0  0  0  0  0  0  0  0  0  0  0  0
   36.0536   40.7019   52.7107 H   0  0  0  0  0  0  0  0  0  0  0  0
   35.9613   39.0239   52.1240 H   0  0  0  0  0  0  0  0  0  0  0  0
   33.9378   40.3296   56.8766 H   0  0  0  0  0  0  0  0  0  0  0  0
   32.9024   37.3270   52.2440 H   0  0  0  0  0  0  0  0  0  0  0  0
   32.0854   35.8381   53.3213 H   0  0  0  0  0  0  0  0  0  0  0  0
   31.6357   33.6788   54.5761 H   0  0  0  0  0  0  0  0  0  0  0  0
   36.0390   35.1101   54.7623 H   0  0  0  0  0  0  0  0  0  0  0  0
  1  2  1  0  0  0  0
  1 15  1  0  0  0  0
  1 16  1  0  0  0  0
  1 17  1  0  0  0  0
  2  6  2  0  0  0  0
  2  3  1  0  0  0  0
  3  4  2  0  0  0  0
  4  5  1  0  0  0  0
  4 18  1  0  0  0  0
  5  6  1  0  0  0  0
  6  7  1  0  0  0  0
  7  8  1  6  0  0  0
  7  9  1  0  0  0  0
  7 10  1  0  0  0  0
  9 19  1  0  0  0  0
 10 14  2  0  0  0  0
 10 11  1  0  0  0  0
 11 12  2  0  0  0  0
 11 20  1  0  0  0  0
 12 13  1  0  0  0  0
 12 21  1  0  0  0  0
 13 14  1  0  0  0  0
 14 22  1  0  0  0  0
M  END
$$$$
