ZINC000000029773      none
 OpenBabel11202420163D

 32 33  0  0  0  0  0  0  0  0999 V2000
   32.2289   35.8111   52.5127 C   0  0  0  0  0  0  0  0  0  0  0  0
   32.8492   35.0097   53.5706 N   0  0  0  0  0  0  0  0  0  0  0  0
   32.4315   33.6208   53.7775 C   0  0  0  0  0  0  0  0  0  0  0  0
   33.6154   32.7072   53.5909 C   0  0  0  0  0  0  0  0  0  0  0  0
   33.8972   32.1875   52.3413 C   0  0  0  0  0  0  0  0  0  0  0  0
   34.9858   31.3531   52.1692 C   0  0  0  0  0  0  0  0  0  0  0  0
   35.7867   31.0303   53.2487 C   0  0  0  0  0  0  0  0  0  0  0  0
   35.5019   31.5459   54.4993 C   0  0  0  0  0  0  0  0  0  0  0  0
   34.4161   32.3843   54.6704 C   0  0  0  0  0  0  0  0  0  0  0  0
   33.8042   35.5499   54.3531 C   0  0  0  0  0  0  0  0  0  0  0  0
   34.3189   34.8848   55.2310 O   0  0  0  0  0  0  0  0  0  0  0  0
   34.2255   36.9503   54.1442 C   0  0  0  0  0  0  0  0  0  0  0  0
   34.0920   37.8834   55.1747 C   0  0  0  0  0  0  0  0  0  0  0  0
   34.4824   39.1899   54.9729 C   0  0  0  0  0  0  0  0  0  0  0  0
   35.0165   39.5759   53.7529 C   0  0  0  0  0  0  0  0  0  0  0  0
   35.4028   40.8564   53.5623 F   0  0  0  0  0  0  0  0  0  0  0  0
   35.1562   38.6523   52.7282 C   0  0  0  0  0  0  0  0  0  0  0  0
   34.7641   37.3445   52.9175 C   0  0  0  0  0  0  0  0  0  0  0  0
   32.7428   35.6278   51.5691 H   0  0  0  0  0  0  0  0  0  0  0  0
   31.1794   35.5337   52.4147 H   0  0  0  0  0  0  0  0  0  0  0  0
   32.3028   36.8685   52.7673 H   0  0  0  0  0  0  0  0  0  0  0  0
   32.0396   33.5059   54.7881 H   0  0  0  0  0  0  0  0  0  0  0  0
   31.6564   33.3631   53.0558 H   0  0  0  0  0  0  0  0  0  0  0  0
   33.2688   32.4361   51.4988 H   0  0  0  0  0  0  0  0  0  0  0  0
   35.2083   30.9502   51.1922 H   0  0  0  0  0  0  0  0  0  0  0  0
   36.6347   30.3749   53.1152 H   0  0  0  0  0  0  0  0  0  0  0  0
   36.1273   31.2933   55.3428 H   0  0  0  0  0  0  0  0  0  0  0  0
   34.1934   32.7867   55.6476 H   0  0  0  0  0  0  0  0  0  0  0  0
   33.6803   37.5827   56.1268 H   0  0  0  0  0  0  0  0  0  0  0  0
   34.3762   39.9131   55.7679 H   0  0  0  0  0  0  0  0  0  0  0  0
   35.5731   38.9583   51.7801 H   0  0  0  0  0  0  0  0  0  0  0  0
   34.8736   36.6259   52.1188 H   0  0  0  0  0  0  0  0  0  0  0  0
  1  2  1  0  0  0  0
  1 19  1  0  0  0  0
  1 20  1  0  0  0  0
  1 21  1  0  0  0  0
  2  3  1  0  0  0  0
  2 10  1  0  0  0  0
  3  4  1  0  0  0  0
  3 22  1  0  0  0  0
  3 23  1  0  0  0  0
  4  9  2  0  0  0  0
  4  5  1  0  0  0  0
  5  6  2  0  0  0  0
  5 24  1  0  0  0  0
  6  7  1  0  0  0  0
  6 25  1  0  0  0  0
  7  8  2  0  0  0  0
  7 26  1  0  0  0  0
  8  9  1  0  0  0  0
  8 27  1  0  0  0  0
  9 28  1  0  0  0  0
 10 11  2  0  0  0  0
 10 12  1  0  0  0  0
 12 18  2  0  0  0  0
 12 13  1  0  0  0  0
 13 14  2  0  0  0  0
 13 29  1  0  0  0  0
 14 15  1  0  0  0  0
 14 30  1  0  0  0  0
 15 16  1  0  0  0  0
 15 17  2  0  0  0  0
 17 18  1  0  0  0  0
 17 31  1  0  0  0  0
 18 32  1  0  0  0  0
M  END
$$$$
