ZINC000000001742      none
 OpenBabel11202420153D

 28 29  0  0  0  0  0  0  0  0999 V2000
   33.4487   38.0222   56.3513 C   0  0  0  0  0  0  0  0  0  0  0  0
   33.0225   37.0159   57.3890 C   0  0  0  0  0  0  0  0  0  0  0  0
   32.6239   37.4225   58.5793 N   0  0  0  0  0  0  0  0  0  0  0  0
   32.2550   36.5398   59.4922 C   0  0  0  0  0  0  0  0  0  0  0  0
   32.2799   35.1887   59.2024 C   0  0  0  0  0  0  0  0  0  0  0  0
   32.6730   34.7731   58.0104 N   0  0  0  0  0  0  0  0  0  0  0  0
   33.0440   35.6553   57.0914 C   0  0  0  0  0  0  0  0  0  0  0  0
   33.4583   35.2227   55.8371 N   0  0  0  0  0  0  0  0  0  0  0  0
   32.3430   35.2328   54.8820 C   0  0  0  0  0  0  0  0  0  0  0  0
   32.8639   34.8924   53.4837 C   0  0  0  0  0  0  0  0  0  0  0  0
   33.5230   33.5107   53.5126 C   0  0  0  0  0  0  0  0  0  0  0  0
   34.6496   33.5127   54.5495 C   0  0  0  0  0  0  0  0  0  0  0  0
   34.0769   33.8932   55.9169 C   0  0  0  0  0  0  0  0  0  0  0  0
   32.6046   38.2540   55.7017 H   0  0  0  0  0  0  0  0  0  0  0  0
   33.7875   38.9327   56.8456 H   0  0  0  0  0  0  0  0  0  0  0  0
   34.2623   37.6078   55.7559 H   0  0  0  0  0  0  0  0  0  0  0  0
   31.9330   36.8757   60.4668 H   0  0  0  0  0  0  0  0  0  0  0  0
   31.9774   34.4712   59.9509 H   0  0  0  0  0  0  0  0  0  0  0  0
   31.6004   34.4938   55.1828 H   0  0  0  0  0  0  0  0  0  0  0  0
   31.8858   36.2222   54.8681 H   0  0  0  0  0  0  0  0  0  0  0  0
   33.5964   35.6388   53.1766 H   0  0  0  0  0  0  0  0  0  0  0  0
   32.0333   34.8847   52.7779 H   0  0  0  0  0  0  0  0  0  0  0  0
   33.9338   33.2825   52.5290 H   0  0  0  0  0  0  0  0  0  0  0  0
   32.7819   32.7580   53.7812 H   0  0  0  0  0  0  0  0  0  0  0  0
   35.4102   34.2374   54.2592 H   0  0  0  0  0  0  0  0  0  0  0  0
   35.0954   32.5197   54.6054 H   0  0  0  0  0  0  0  0  0  0  0  0
   34.8790   33.9096   56.6548 H   0  0  0  0  0  0  0  0  0  0  0  0
   33.3261   33.1604   56.2126 H   0  0  0  0  0  0  0  0  0  0  0  0
  1  2  1  0  0  0  0
  1 14  1  0  0  0  0
  1 15  1  0  0  0  0
  1 16  1  0  0  0  0
  2  7  2  0  0  0  0
  2  3  1  0  0  0  0
  3  4  2  0  0  0  0
  4  5  1  0  0  0  0
  4 17  1  0  0  0  0
  5  6  2  0  0  0  0
  5 18  1  0  0  0  0
  6  7  1  0  0  0  0
  7  8  1  0  0  0  0
  8 13  1  0  0  0  0
  8  9  1  0  0  0  0
  9 10  1  0  0  0  0
  9 19  1  0  0  0  0
  9 20  1  0  0  0  0
 10 11  1  0  0  0  0
 10 21  1  0  0  0  0
 10 22  1  0  0  0  0
 11 12  1  0  0  0  0
 11 23  1  0  0  0  0
 11 24  1  0  0  0  0
 12 13  1  0  0  0  0
 12 25  1  0  0  0  0
 12 26  1  0  0  0  0
 13 27  1  0  0  0  0
 13 28  1  0  0  0  0
M  END
$$$$
