ZINC000000048647      none
 OpenBabel11202420153D

 38 40  0  0  1  0  0  0  0  0999 V2000
   30.6987   39.3154   62.1019 O   0  0  0  0  0  0  0  0  0  0  0  0
   30.8358   38.1452   61.7931 N   0  0  0  0  0  0  0  0  0  0  0  0
   30.3352   37.2718   62.4787 O   0  0  0  0  0  0  0  0  0  0  0  0
   31.6056   37.7849   60.5814 C   0  0  0  0  0  0  0  0  0  0  0  0
   31.7652   36.4559   60.2350 C   0  0  0  0  0  0  0  0  0  0  0  0
   32.4784   36.1172   59.1014 C   0  0  0  0  0  0  0  0  0  0  0  0
   33.0448   37.1114   58.3168 C   0  0  0  0  0  0  0  0  0  0  0  0
   33.7523   36.7806   57.2048 O   0  0  0  0  0  0  0  0  0  0  0  0
   33.7453   37.7201   56.1280 C   0  0  0  0  0  0  0  0  0  0  0  0
   33.8918   36.9748   54.7998 C   0  0  1  0  0  0  0  0  0  0  0  0
   33.8865   37.6914   53.9786 H   0  0  0  0  0  0  0  0  0  0  0  0
   35.1243   36.2516   54.7930 O   0  0  0  0  0  0  0  0  0  0  0  0
   32.7264   35.9979   54.6319 C   0  0  0  0  0  0  0  0  0  0  0  0
   33.0867   34.9719   53.6502 N   0  0  0  0  0  0  0  0  0  0  0  0
   32.8719   35.0293   52.3082 C   0  0  0  0  0  0  0  0  0  0  0  0
   33.3188   33.9489   51.7373 N   0  0  0  0  0  0  0  0  0  0  0  0
   33.8436   33.1200   52.6762 C   0  0  0  0  0  0  0  0  0  0  0  0
   34.4415   31.8582   52.6218 C   0  0  0  0  0  0  0  0  0  0  0  0
   34.8811   31.2633   53.7702 C   0  0  0  0  0  0  0  0  0  0  0  0
   34.7415   31.8998   54.9955 C   0  0  0  0  0  0  0  0  0  0  0  0
   34.1552   33.1451   55.0730 C   0  0  0  0  0  0  0  0  0  0  0  0
   33.7019   33.7649   53.9164 C   0  0  0  0  0  0  0  0  0  0  0  0
   32.8880   38.4439   58.6698 C   0  0  0  0  0  0  0  0  0  0  0  0
   32.1686   38.7777   59.8009 C   0  0  0  0  0  0  0  0  0  0  0  0
   31.3281   35.6821   60.8486 H   0  0  0  0  0  0  0  0  0  0  0  0
   32.5994   35.0792   58.8290 H   0  0  0  0  0  0  0  0  0  0  0  0
   32.8052   38.2717   56.1331 H   0  0  0  0  0  0  0  0  0  0  0  0
   34.5756   38.4160   56.2476 H   0  0  0  0  0  0  0  0  0  0  0  0
   35.1988   35.5947   55.4986 H   0  0  0  0  0  0  0  0  0  0  0  0
   32.5084   35.5243   55.5891 H   0  0  0  0  0  0  0  0  0  0  0  0
   31.8459   36.5389   54.2855 H   0  0  0  0  0  0  0  0  0  0  0  0
   32.4010   35.8525   51.7916 H   0  0  0  0  0  0  0  0  0  0  0  0
   34.5552   31.3539   51.6736 H   0  0  0  0  0  0  0  0  0  0  0  0
   35.3424   30.2879   53.7241 H   0  0  0  0  0  0  0  0  0  0  0  0
   35.0949   31.4165   55.8943 H   0  0  0  0  0  0  0  0  0  0  0  0
   34.0486   33.6359   56.0291 H   0  0  0  0  0  0  0  0  0  0  0  0
   33.3282   39.2196   58.0608 H   0  0  0  0  0  0  0  0  0  0  0  0
   32.0463   39.8148   60.0760 H   0  0  0  0  0  0  0  0  0  0  0  0
  1  2  2  0  0  0  0
  2  3  2  0  0  0  0
  2  4  1  0  0  0  0
  4 24  2  0  0  0  0
  4  5  1  0  0  0  0
  5  6  2  0  0  0  0
  5 25  1  0  0  0  0
  6  7  1  0  0  0  0
  6 26  1  0  0  0  0
  7  8  1  0  0  0  0
  7 23  2  0  0  0  0
  8  9  1  0  0  0  0
  9 10  1  0  0  0  0
  9 27  1  0  0  0  0
  9 28  1  0  0  0  0
 10 11  1  6  0  0  0
 10 12  1  0  0  0  0
 10 13  1  0  0  0  0
 12 29  1  0  0  0  0
 13 14  1  0  0  0  0
 13 30  1  0  0  0  0
 13 31  1  0  0  0  0
 14 22  1  0  0  0  0
 14 15  1  0  0  0  0
 15 16  2  0  0  0  0
 15 32  1  0  0  0  0
 16 17  1  0  0  0  0
 17 22  2  0  0  0  0
 17 18  1  0  0  0  0
 18 19  2  0  0  0  0
 18 33  1  0  0  0  0
 19 20  1  0  0  0  0
 19 34  1  0  0  0  0
 20 21  2  0  0  0  0
 20 35  1  0  0  0  0
 21 22  1  0  0  0  0
 21 36  1  0  0  0  0
 23 24  1  0  0  0  0
 23 37  1  0  0  0  0
 24 38  1  0  0  0  0
M  END
$$$$
