ZINC000000032747      none
 OpenBabel11202420153D

 31 33  0  0  0  0  0  0  0  0999 V2000
   32.6168   39.6292   57.7894 C   0  0  0  0  0  0  0  0  0  0  0  0
   33.6349   38.6291   57.8611 O   0  0  0  0  0  0  0  0  0  0  0  0
   33.3860   37.4496   57.2349 C   0  0  0  0  0  0  0  0  0  0  0  0
   32.7799   36.4283   57.9099 C   0  0  0  0  0  0  0  0  0  0  0  0
   32.5115   35.2146   57.2834 C   0  0  0  0  0  0  0  0  0  0  0  0
   32.8511   35.0088   55.9805 C   0  0  0  0  0  0  0  0  0  0  0  0
   32.5009   33.4642   55.2084 S   0  0  0  0  0  0  0  0  0  0  0  0
   31.7968   32.6868   56.1671 O   0  0  0  0  0  0  0  0  0  0  0  0
   31.9815   33.7677   53.9211 O   0  0  0  0  0  0  0  0  0  0  0  0
   33.9494   32.7008   54.9600 N   0  0  0  0  0  0  0  0  0  0  0  0
   34.4663   32.3121   53.7536 C   0  0  0  0  0  0  0  0  0  0  0  0
   35.6569   31.7362   54.0074 C   0  0  0  0  0  0  0  0  0  0  0  0
   35.8571   31.7638   55.3333 N   0  0  0  0  0  0  0  0  0  0  0  0
   34.8384   32.3402   55.9105 C   0  0  0  0  0  0  0  0  0  0  0  0
   33.4810   36.0329   55.2551 C   0  0  0  0  0  0  0  0  0  0  0  0
   33.8473   35.8573   53.9071 C   0  0  0  0  0  0  0  0  0  0  0  0
   34.4577   36.8965   53.2648 C   0  0  0  0  0  0  0  0  0  0  0  0
   34.7001   38.0882   53.9451 C   0  0  0  0  0  0  0  0  0  0  0  0
   34.3570   38.2477   55.2001 N   0  0  0  0  0  0  0  0  0  0  0  0
   33.7572   37.2707   55.8859 C   0  0  0  0  0  0  0  0  0  0  0  0
   32.4314   39.8848   56.7461 H   0  0  0  0  0  0  0  0  0  0  0  0
   31.6999   39.2471   58.2382 H   0  0  0  0  0  0  0  0  0  0  0  0
   32.9423   40.5185   58.3290 H   0  0  0  0  0  0  0  0  0  0  0  0
   32.5005   36.5662   58.9439 H   0  0  0  0  0  0  0  0  0  0  0  0
   32.0275   34.4246   57.8385 H   0  0  0  0  0  0  0  0  0  0  0  0
   34.0086   32.4442   52.7845 H   0  0  0  0  0  0  0  0  0  0  0  0
   36.3301   31.3200   53.2725 H   0  0  0  0  0  0  0  0  0  0  0  0
   34.7253   32.5025   56.9722 H   0  0  0  0  0  0  0  0  0  0  0  0
   33.6520   34.9265   53.3955 H   0  0  0  0  0  0  0  0  0  0  0  0
   34.7520   36.7949   52.2306 H   0  0  0  0  0  0  0  0  0  0  0  0
   35.1830   38.9019   53.4245 H   0  0  0  0  0  0  0  0  0  0  0  0
  1  2  1  0  0  0  0
  1 21  1  0  0  0  0
  1 22  1  0  0  0  0
  1 23  1  0  0  0  0
  2  3  1  0  0  0  0
  3 20  2  0  0  0  0
  3  4  1  0  0  0  0
  4  5  2  0  0  0  0
  4 24  1  0  0  0  0
  5  6  1  0  0  0  0
  5 25  1  0  0  0  0
  6  7  1  0  0  0  0
  6 15  2  0  0  0  0
  7  8  2  0  0  0  0
  7  9  2  0  0  0  0
  7 10  1  0  0  0  0
 10 14  1  0  0  0  0
 10 11  1  0  0  0  0
 11 12  2  0  0  0  0
 11 26  1  0  0  0  0
 12 13  1  0  0  0  0
 12 27  1  0  0  0  0
 13 14  2  0  0  0  0
 14 28  1  0  0  0  0
 15 20  1  0  0  0  0
 15 16  1  0  0  0  0
 16 17  2  0  0  0  0
 16 29  1  0  0  0  0
 17 18  1  0  0  0  0
 17 30  1  0  0  0  0
 18 19  2  0  0  0  0
 18 31  1  0  0  0  0
 19 20  1  0  0  0  0
M  END
$$$$
