ZINC000000001336      none
 OpenBabel11202420153D

 28 30  0  0  0  0  0  0  0  0999 V2000
   32.8709   35.3468   56.3722 C   0  0  0  0  0  0  0  0  0  0  0  0
   32.9555   36.6332   57.1526 C   0  0  0  0  0  0  0  0  0  0  0  0
   33.3834   37.7915   56.5289 C   0  0  0  0  0  0  0  0  0  0  0  0
   33.4632   38.9743   57.2388 C   0  0  0  0  0  0  0  0  0  0  0  0
   33.1191   39.0019   58.5813 C   0  0  0  0  0  0  0  0  0  0  0  0
   33.2019   40.1630   59.2823 O   0  0  0  0  0  0  0  0  0  0  0  0
   32.6825   37.8367   59.2088 C   0  0  0  0  0  0  0  0  0  0  0  0
   32.3279   37.8590   60.5634 N   0  0  0  0  0  0  0  0  0  0  0  0
   32.9041   37.1401   61.4629 N   0  0  0  0  0  0  0  0  0  0  0  0
   32.3446   37.3929   62.6361 C   0  0  0  0  0  0  0  0  0  0  0  0
   32.5122   36.9540   63.9605 C   0  0  0  0  0  0  0  0  0  0  0  0
   31.7125   37.4560   64.9381 C   0  0  0  0  0  0  0  0  0  0  0  0
   30.7235   38.4006   64.6635 C   0  0  0  0  0  0  0  0  0  0  0  0
   30.5097   38.8663   63.4048 C   0  0  0  0  0  0  0  0  0  0  0  0
   31.3017   38.3888   62.3465 C   0  0  0  0  0  0  0  0  0  0  0  0
   31.3870   38.5964   61.0417 N   0  0  0  0  0  0  0  0  0  0  0  0
   32.6052   36.6526   58.4885 C   0  0  0  0  0  0  0  0  0  0  0  0
   33.8208   34.8167   56.4414 H   0  0  0  0  0  0  0  0  0  0  0  0
   32.0764   34.7239   56.7834 H   0  0  0  0  0  0  0  0  0  0  0  0
   32.6542   35.5692   55.3274 H   0  0  0  0  0  0  0  0  0  0  0  0
   33.6563   37.7712   55.4841 H   0  0  0  0  0  0  0  0  0  0  0  0
   33.7982   39.8765   56.7486 H   0  0  0  0  0  0  0  0  0  0  0  0
   32.9413   40.0820   60.2099 H   0  0  0  0  0  0  0  0  0  0  0  0
   33.2704   36.2231   64.1997 H   0  0  0  0  0  0  0  0  0  0  0  0
   31.8466   37.1150   65.9539 H   0  0  0  0  0  0  0  0  0  0  0  0
   30.1117   38.7718   65.4723 H   0  0  0  0  0  0  0  0  0  0  0  0
   29.7370   39.5975   63.2189 H   0  0  0  0  0  0  0  0  0  0  0  0
   32.2713   35.7467   58.9725 H   0  0  0  0  0  0  0  0  0  0  0  0
  1  2  1  0  0  0  0
  1 18  1  0  0  0  0
  1 19  1  0  0  0  0
  1 20  1  0  0  0  0
  2 17  2  0  0  0  0
  2  3  1  0  0  0  0
  3  4  2  0  0  0  0
  3 21  1  0  0  0  0
  4  5  1  0  0  0  0
  4 22  1  0  0  0  0
  5  6  1  0  0  0  0
  5  7  2  0  0  0  0
  6 23  1  0  0  0  0
  7  8  1  0  0  0  0
  7 17  1  0  0  0  0
  8 16  1  0  0  0  0
  8  9  1  0  0  0  0
  9 10  2  0  0  0  0
 10 15  1  0  0  0  0
 10 11  1  0  0  0  0
 11 12  2  0  0  0  0
 11 24  1  0  0  0  0
 12 13  1  0  0  0  0
 12 25  1  0  0  0  0
 13 14  2  0  0  0  0
 13 26  1  0  0  0  0
 14 15  1  0  0  0  0
 14 27  1  0  0  0  0
 15 16  2  0  0  0  0
 17 28  1  0  0  0  0
M  END
$$$$
