ZINC000000028271      none
 OpenBabel11202420163D

 22 22  0  0  0  0  0  0  0  0999 V2000
   33.2649   40.2049   58.5304 C   0  0  0  0  0  0  0  0  0  0  0  0
   32.8354   39.0168   59.1983 O   0  0  0  0  0  0  0  0  0  0  0  0
   32.8244   37.8708   58.4710 C   0  0  0  0  0  0  0  0  0  0  0  0
   32.4178   36.6797   59.0608 C   0  0  0  0  0  0  0  0  0  0  0  0
   32.4111   35.5136   58.3283 C   0  0  0  0  0  0  0  0  0  0  0  0
   32.8034   35.5309   56.9868 C   0  0  0  0  0  0  0  0  0  0  0  0
   32.7930   34.2861   56.1974 C   0  0  0  0  0  0  0  0  0  0  0  0
   31.6650   33.0508   56.5618 S   0  0  0  0  0  0  0  0  0  0  0  0
   33.6715   34.1202   55.1889 N   0  0  0  0  0  0  0  0  0  0  0  0
   33.6620   32.9666   54.4575 N   0  0  0  0  0  0  0  0  0  0  0  0
   33.2116   36.7311   56.3977 C   0  0  0  0  0  0  0  0  0  0  0  0
   33.2203   37.8917   57.1389 C   0  0  0  0  0  0  0  0  0  0  0  0
   33.2262   41.0454   59.2233 H   0  0  0  0  0  0  0  0  0  0  0  0
   34.2874   40.0730   58.1762 H   0  0  0  0  0  0  0  0  0  0  0  0
   32.6093   40.4024   57.6824 H   0  0  0  0  0  0  0  0  0  0  0  0
   32.1110   36.6680   60.0962 H   0  0  0  0  0  0  0  0  0  0  0  0
   32.0995   34.5877   58.7888 H   0  0  0  0  0  0  0  0  0  0  0  0
   34.3107   34.8201   54.9824 H   0  0  0  0  0  0  0  0  0  0  0  0
   34.3722   32.9868   53.7411 H   0  0  0  0  0  0  0  0  0  0  0  0
   33.7720   32.1598   55.0533 H   0  0  0  0  0  0  0  0  0  0  0  0
   33.5200   36.7480   55.3628 H   0  0  0  0  0  0  0  0  0  0  0  0
   33.5356   38.8193   56.6846 H   0  0  0  0  0  0  0  0  0  0  0  0
  1  2  1  0  0  0  0
  1 13  1  0  0  0  0
  1 14  1  0  0  0  0
  1 15  1  0  0  0  0
  2  3  1  0  0  0  0
  3 12  2  0  0  0  0
  3  4  1  0  0  0  0
  4  5  2  0  0  0  0
  4 16  1  0  0  0  0
  5  6  1  0  0  0  0
  5 17  1  0  0  0  0
  6  7  1  0  0  0  0
  6 11  2  0  0  0  0
  7  8  2  0  0  0  0
  7  9  1  0  0  0  0
  9 10  1  0  0  0  0
  9 18  1  0  0  0  0
 10 19  1  0  0  0  0
 10 20  1  0  0  0  0
 11 12  1  0  0  0  0
 11 21  1  0  0  0  0
 12 22  1  0  0  0  0
M  END
$$$$
