ZINC000000050527      none
 OpenBabel11202420153D

 25 25  0  0  0  0  0  0  0  0999 V2000
   30.7067   37.3220   60.8863 C   0  0  0  0  0  0  0  0  0  0  0  0
   31.1314   37.4283   59.4204 C   0  0  0  0  0  0  0  0  0  0  0  0
   32.6310   37.1492   59.3022 C   0  0  0  0  0  0  0  0  0  0  0  0
   33.0493   37.2539   57.8582 C   0  0  0  0  0  0  0  0  0  0  0  0
   33.0217   36.1254   57.0240 C   0  0  0  0  0  0  0  0  0  0  0  0
   32.5945   34.8587   57.5378 C   0  0  0  0  0  0  0  0  0  0  0  0
   32.2556   33.8539   57.9453 N   0  0  0  0  0  0  0  0  0  0  0  0
   33.4104   36.2488   55.6833 C   0  0  0  0  0  0  0  0  0  0  0  0
   33.3799   35.1556   54.8666 N   0  0  0  0  0  0  0  0  0  0  0  0
   33.8219   37.4458   55.1910 N   0  0  0  0  0  0  0  0  0  0  0  0
   34.0911   37.5118   54.2615 H   0  0  0  0  0  0  0  0  0  0  0  0
   33.8630   38.5415   55.9704 C   0  0  0  0  0  0  0  0  0  0  0  0
   34.3878   40.0327   55.3132 S   0  0  0  0  0  0  0  0  0  0  0  0
   33.4748   38.4704   57.3314 C   0  0  0  0  0  0  0  0  0  0  0  0
   33.5200   39.6391   58.1576 C   0  0  0  0  0  0  0  0  0  0  0  0
   33.5560   40.5663   58.8130 N   0  0  0  0  0  0  0  0  0  0  0  0
   31.2597   38.0511   61.4786 H   0  0  0  0  0  0  0  0  0  0  0  0
   29.6384   37.5209   60.9706 H   0  0  0  0  0  0  0  0  0  0  0  0
   30.9197   36.3183   61.2544 H   0  0  0  0  0  0  0  0  0  0  0  0
   30.9185   38.4320   59.0523 H   0  0  0  0  0  0  0  0  0  0  0  0
   30.5783   36.6994   58.8281 H   0  0  0  0  0  0  0  0  0  0  0  0
   32.8439   36.1455   59.6702 H   0  0  0  0  0  0  0  0  0  0  0  0
   33.1840   37.8782   59.8945 H   0  0  0  0  0  0  0  0  0  0  0  0
   33.6516   35.2357   53.9389 H   0  0  0  0  0  0  0  0  0  0  0  0
   33.0867   34.2988   55.2139 H   0  0  0  0  0  0  0  0  0  0  0  0
  1  2  1  0  0  0  0
  1 17  1  0  0  0  0
  1 18  1  0  0  0  0
  1 19  1  0  0  0  0
  2  3  1  0  0  0  0
  2 20  1  0  0  0  0
  2 21  1  0  0  0  0
  3  4  1  0  0  0  0
  3 22  1  0  0  0  0
  3 23  1  0  0  0  0
  4 14  2  0  0  0  0
  4  5  1  0  0  0  0
  5  6  1  0  0  0  0
  5  8  2  0  0  0  0
  6  7  3  0  0  0  0
  8  9  1  0  0  0  0
  8 10  1  0  0  0  0
  9 24  1  0  0  0  0
  9 25  1  0  0  0  0
 10 11  1  0  0  0  0
 10 12  1  0  0  0  0
 12 13  2  0  0  0  0
 12 14  1  0  0  0  0
 14 15  1  0  0  0  0
 15 16  3  0  0  0  0
M  END
$$$$
