ZINC000000036797      none
 OpenBabel11202420153D

 39 40  0  0  0  0  0  0  0  0999 V2000
   33.1335   41.5900   67.1186 C   0  0  0  0  0  0  0  0  0  0  0  0
   32.0981   40.4973   67.3919 C   0  0  0  0  0  0  0  0  0  0  0  0
   31.5831   39.9924   66.1316 O   0  0  0  0  0  0  0  0  0  0  0  0
   32.2354   38.9497   65.5772 C   0  0  0  0  0  0  0  0  0  0  0  0
   33.2082   38.4760   66.1326 O   0  0  0  0  0  0  0  0  0  0  0  0
   31.7717   38.3879   64.3056 C   0  0  0  0  0  0  0  0  0  0  0  0
   30.6264   38.9456   63.6516 C   0  0  0  0  0  0  0  0  0  0  0  0
   29.7176   39.3879   63.1328 N   0  0  0  0  0  0  0  0  0  0  0  0
   32.4440   37.3138   63.7341 C   0  0  0  0  0  0  0  0  0  0  0  0
   32.0002   36.7761   62.5171 C   0  0  0  0  0  0  0  0  0  0  0  0
   30.7488   36.2233   62.2789 C   0  0  0  0  0  0  0  0  0  0  0  0
   30.7336   35.8214   60.9452 C   0  0  0  0  0  0  0  0  0  0  0  0
   31.9699   36.1309   60.4150 C   0  0  0  0  0  0  0  0  0  0  0  0
   32.3983   35.8782   59.0273 C   0  0  0  0  0  0  0  0  0  0  0  0
   32.4191   34.5728   58.5263 C   0  0  0  0  0  0  0  0  0  0  0  0
   32.8205   34.3415   57.2294 C   0  0  0  0  0  0  0  0  0  0  0  0
   33.2045   35.4032   56.4188 C   0  0  0  0  0  0  0  0  0  0  0  0
   33.5996   35.1704   55.1407 O   0  0  0  0  0  0  0  0  0  0  0  0
   33.9812   36.3065   54.3624 C   0  0  0  0  0  0  0  0  0  0  0  0
   33.1805   36.7025   56.9105 C   0  0  0  0  0  0  0  0  0  0  0  0
   32.7855   36.9429   58.2081 C   0  0  0  0  0  0  0  0  0  0  0  0
   32.7652   38.3272   58.7324 N   0  0  0  0  0  0  0  0  0  0  0  0
   32.4109   38.5393   59.8783 O   0  0  0  0  0  0  0  0  0  0  0  0
   33.1074   39.2536   58.0194 O   0  0  0  0  0  0  0  0  0  0  0  0
   32.7158   36.7065   61.3736 O   0  0  0  0  0  0  0  0  0  0  0  0
   33.5201   41.9689   68.0645 H   0  0  0  0  0  0  0  0  0  0  0  0
   33.9528   41.1755   66.5313 H   0  0  0  0  0  0  0  0  0  0  0  0
   32.6653   42.4040   66.5651 H   0  0  0  0  0  0  0  0  0  0  0  0
   31.2787   40.9117   67.9793 H   0  0  0  0  0  0  0  0  0  0  0  0
   32.5663   39.6831   67.9453 H   0  0  0  0  0  0  0  0  0  0  0  0
   33.3078   36.8933   64.2273 H   0  0  0  0  0  0  0  0  0  0  0  0
   29.9414   36.1271   62.9896 H   0  0  0  0  0  0  0  0  0  0  0  0
   29.9108   35.3536   60.4251 H   0  0  0  0  0  0  0  0  0  0  0  0
   32.1212   33.7471   59.1556 H   0  0  0  0  0  0  0  0  0  0  0  0
   32.8366   33.3337   56.8415 H   0  0  0  0  0  0  0  0  0  0  0  0
   33.1396   36.9951   54.2879 H   0  0  0  0  0  0  0  0  0  0  0  0
   34.8211   36.8096   54.8416 H   0  0  0  0  0  0  0  0  0  0  0  0
   34.2741   35.9813   53.3641 H   0  0  0  0  0  0  0  0  0  0  0  0
   33.4759   37.5248   56.2756 H   0  0  0  0  0  0  0  0  0  0  0  0
  1  2  1  0  0  0  0
  1 26  1  0  0  0  0
  1 27  1  0  0  0  0
  1 28  1  0  0  0  0
  2  3  1  0  0  0  0
  2 29  1  0  0  0  0
  2 30  1  0  0  0  0
  3  4  1  0  0  0  0
  4  5  2  0  0  0  0
  4  6  1  0  0  0  0
  6  7  1  0  0  0  0
  6  9  2  0  0  0  0
  7  8  3  0  0  0  0
  9 10  1  0  0  0  0
  9 31  1  0  0  0  0
 10 25  1  0  0  0  0
 10 11  2  0  0  0  0
 11 12  1  0  0  0  0
 11 32  1  0  0  0  0
 12 13  2  0  0  0  0
 12 33  1  0  0  0  0
 13 14  1  0  0  0  0
 13 25  1  0  0  0  0
 14 21  2  0  0  0  0
 14 15  1  0  0  0  0
 15 16  2  0  0  0  0
 15 34  1  0  0  0  0
 16 17  1  0  0  0  0
 16 35  1  0  0  0  0
 17 18  1  0  0  0  0
 17 20  2  0  0  0  0
 18 19  1  0  0  0  0
 19 36  1  0  0  0  0
 19 37  1  0  0  0  0
 19 38  1  0  0  0  0
 20 21  1  0  0  0  0
 20 39  1  0  0  0  0
 21 22  1  0  0  0  0
 22 23  2  0  0  0  0
 22 24  2  0  0  0  0
M  END
$$$$
