ZINC000000038535      none
 OpenBabel11202420153D

 32 33  0  0  0  0  0  0  0  0999 V2000
   33.3964   37.0464   64.2415 O   0  0  0  0  0  0  0  0  0  0  0  0
   32.3877   37.4223   63.6829 C   0  0  0  0  0  0  0  0  0  0  0  0
   32.0617   36.9227   62.2990 C   0  0  0  0  0  0  0  0  0  0  0  0
   31.9852   38.0297   61.3986 O   0  0  0  0  0  0  0  0  0  0  0  0
   32.3225   37.7959   60.1031 C   0  0  0  0  0  0  0  0  0  0  0  0
   32.8721   38.8112   59.3339 C   0  0  0  0  0  0  0  0  0  0  0  0
   33.2146   38.5708   58.0174 C   0  0  0  0  0  0  0  0  0  0  0  0
   33.0099   37.3194   57.4661 C   0  0  0  0  0  0  0  0  0  0  0  0
   33.3777   37.0644   56.0553 N   0  0  0  0  0  0  0  0  0  0  0  0
   33.8603   37.9566   55.3810 O   0  0  0  0  0  0  0  0  0  0  0  0
   33.2024   35.9611   55.5701 O   0  0  0  0  0  0  0  0  0  0  0  0
   32.4571   36.3073   58.2289 C   0  0  0  0  0  0  0  0  0  0  0  0
   32.1181   36.5411   59.5476 C   0  0  0  0  0  0  0  0  0  0  0  0
   31.5582   38.2872   64.2999 N   0  0  0  0  0  0  0  0  0  0  0  0
   31.7505   38.8468   65.6457 C   0  0  0  0  0  0  0  0  0  0  0  0
   30.5437   39.7632   65.9375 C   0  0  0  0  0  0  0  0  0  0  0  0
   29.4562   39.2200   64.9735 C   0  0  0  0  0  0  0  0  0  0  0  0
   30.3046   38.8235   63.7394 C   0  0  0  0  0  0  0  0  0  0  0  0
   31.1045   36.4019   62.3168 H   0  0  0  0  0  0  0  0  0  0  0  0
   32.8419   36.2377   61.9669 H   0  0  0  0  0  0  0  0  0  0  0  0
   33.0317   39.7889   59.7640 H   0  0  0  0  0  0  0  0  0  0  0  0
   33.6420   39.3610   57.4181 H   0  0  0  0  0  0  0  0  0  0  0  0
   32.2938   35.3320   57.7947 H   0  0  0  0  0  0  0  0  0  0  0  0
   31.6905   35.7490   60.1443 H   0  0  0  0  0  0  0  0  0  0  0  0
   31.7931   38.0418   66.3793 H   0  0  0  0  0  0  0  0  0  0  0  0
   32.6715   39.4288   65.6769 H   0  0  0  0  0  0  0  0  0  0  0  0
   30.7792   40.8023   65.7070 H   0  0  0  0  0  0  0  0  0  0  0  0
   30.2259   39.6598   66.9751 H   0  0  0  0  0  0  0  0  0  0  0  0
   28.7359   39.9974   64.7190 H   0  0  0  0  0  0  0  0  0  0  0  0
   28.9557   38.3502   65.3993 H   0  0  0  0  0  0  0  0  0  0  0  0
   30.5087   39.6986   63.1224 H   0  0  0  0  0  0  0  0  0  0  0  0
   29.7927   38.0591   63.1548 H   0  0  0  0  0  0  0  0  0  0  0  0
  1  2  2  0  0  0  0
  2  3  1  0  0  0  0
  2 14  1  0  0  0  0
  3  4  1  0  0  0  0
  3 19  1  0  0  0  0
  3 20  1  0  0  0  0
  4  5  1  0  0  0  0
  5 13  2  0  0  0  0
  5  6  1  0  0  0  0
  6  7  2  0  0  0  0
  6 21  1  0  0  0  0
  7  8  1  0  0  0  0
  7 22  1  0  0  0  0
  8  9  1  0  0  0  0
  8 12  2  0  0  0  0
  9 10  2  0  0  0  0
  9 11  2  0  0  0  0
 12 13  1  0  0  0  0
 12 23  1  0  0  0  0
 13 24  1  0  0  0  0
 14 18  1  0  0  0  0
 14 15  1  0  0  0  0
 15 16  1  0  0  0  0
 15 25  1  0  0  0  0
 15 26  1  0  0  0  0
 16 17  1  0  0  0  0
 16 27  1  0  0  0  0
 16 28  1  0  0  0  0
 17 18  1  0  0  0  0
 17 29  1  0  0  0  0
 17 30  1  0  0  0  0
 18 31  1  0  0  0  0
 18 32  1  0  0  0  0
M  END
$$$$
