ZINC000000037040      none
 OpenBabel11202420153D

 24 25  0  0  0  0  0  0  0  0999 V2000
   33.3172   36.5295   62.9623 O   0  0  0  0  0  0  0  0  0  0  0  0
   32.8444   36.7645   64.0570 C   0  0  0  0  0  0  0  0  0  0  0  0
   33.5640   36.7295   65.1863 N   0  0  0  0  0  0  0  0  0  0  0  0
   32.6922   37.0544   66.3250 C   0  0  0  0  0  0  0  0  0  0  0  0
   31.3137   37.2925   65.6786 C   0  0  0  0  0  0  0  0  0  0  0  0
   31.5552   37.0763   64.2442 N   0  0  0  0  0  0  0  0  0  0  0  0
   30.6269   37.1762   63.2723 C   0  0  0  0  0  0  0  0  0  0  0  0
   29.4811   37.4665   63.5539 O   0  0  0  0  0  0  0  0  0  0  0  0
   31.0025   36.9328   61.8639 C   0  0  0  0  0  0  0  0  0  0  0  0
   31.4393   37.9890   61.0622 C   0  0  0  0  0  0  0  0  0  0  0  0
   31.7931   37.7539   59.7497 C   0  0  0  0  0  0  0  0  0  0  0  0
   31.7056   36.4768   59.2245 C   0  0  0  0  0  0  0  0  0  0  0  0
   31.2685   35.4264   60.0121 C   0  0  0  0  0  0  0  0  0  0  0  0
   30.9167   35.6466   61.3276 C   0  0  0  0  0  0  0  0  0  0  0  0
   34.5099   36.5225   65.2437 H   0  0  0  0  0  0  0  0  0  0  0  0
   33.0400   37.9567   66.8278 H   0  0  0  0  0  0  0  0  0  0  0  0
   32.6473   36.2205   67.0255 H   0  0  0  0  0  0  0  0  0  0  0  0
   30.9771   38.3130   65.8604 H   0  0  0  0  0  0  0  0  0  0  0  0
   30.5831   36.5768   66.0557 H   0  0  0  0  0  0  0  0  0  0  0  0
   31.5042   38.9870   61.4698 H   0  0  0  0  0  0  0  0  0  0  0  0
   32.1350   38.5692   59.1295 H   0  0  0  0  0  0  0  0  0  0  0  0
   31.9796   36.2990   58.1951 H   0  0  0  0  0  0  0  0  0  0  0  0
   31.2023   34.4321   59.5959 H   0  0  0  0  0  0  0  0  0  0  0  0
   30.5753   34.8261   61.9412 H   0  0  0  0  0  0  0  0  0  0  0  0
  1  2  2  0  0  0  0
  2  6  1  0  0  0  0
  2  3  1  0  0  0  0
  3  4  1  0  0  0  0
  3 15  1  0  0  0  0
  4  5  1  0  0  0  0
  4 16  1  0  0  0  0
  4 17  1  0  0  0  0
  5  6  1  0  0  0  0
  5 18  1  0  0  0  0
  5 19  1  0  0  0  0
  6  7  1  0  0  0  0
  7  8  2  0  0  0  0
  7  9  1  0  0  0  0
  9 14  2  0  0  0  0
  9 10  1  0  0  0  0
 10 11  2  0  0  0  0
 10 20  1  0  0  0  0
 11 12  1  0  0  0  0
 11 21  1  0  0  0  0
 12 13  2  0  0  0  0
 12 22  1  0  0  0  0
 13 14  1  0  0  0  0
 13 23  1  0  0  0  0
 14 24  1  0  0  0  0
M  END
$$$$
