ZINC000000055332      none
 OpenBabel11202420153D

 46 48  0  0  0  0  0  0  0  0999 V2000
   30.4654   34.6317   65.5425 C   0  0  0  0  0  0  0  0  0  0  0  0
   29.3410   35.5132   65.5132 O   0  0  0  0  0  0  0  0  0  0  0  0
   29.6022   36.8444   65.5013 C   0  0  0  0  0  0  0  0  0  0  0  0
   29.7119   37.5434   66.6926 C   0  0  0  0  0  0  0  0  0  0  0  0
   29.9837   38.8979   66.6796 C   0  0  0  0  0  0  0  0  0  0  0  0
   30.1439   39.5717   65.4786 C   0  0  0  0  0  0  0  0  0  0  0  0
   30.0339   38.8980   64.2831 C   0  0  0  0  0  0  0  0  0  0  0  0
   29.7585   37.5233   64.2793 C   0  0  0  0  0  0  0  0  0  0  0  0
   29.6395   36.7990   63.0130 C   0  0  0  0  0  0  0  0  0  0  0  0
   30.7035   36.7639   62.1356 C   0  0  0  0  0  0  0  0  0  0  0  0
   30.7141   36.2556   60.8693 N   0  0  0  0  0  0  0  0  0  0  0  0
   31.9039   36.4095   60.3580 C   0  0  0  0  0  0  0  0  0  0  0  0
   32.2853   35.9795   58.9977 C   0  0  0  0  0  0  0  0  0  0  0  0
   32.7394   36.9167   58.0671 C   0  0  0  0  0  0  0  0  0  0  0  0
   33.0995   36.5071   56.8002 C   0  0  0  0  0  0  0  0  0  0  0  0
   33.0009   35.1728   56.4468 C   0  0  0  0  0  0  0  0  0  0  0  0
   33.3906   34.7338   55.0589 C   0  0  0  0  0  0  0  0  0  0  0  0
   34.8606   35.0767   54.8094 C   0  0  0  0  0  0  0  0  0  0  0  0
   33.1899   33.2228   54.9267 C   0  0  0  0  0  0  0  0  0  0  0  0
   32.5169   35.4560   54.0313 C   0  0  0  0  0  0  0  0  0  0  0  0
   32.5463   34.2398   57.3620 C   0  0  0  0  0  0  0  0  0  0  0  0
   32.1883   34.6345   58.6342 C   0  0  0  0  0  0  0  0  0  0  0  0
   32.7429   37.0046   61.2276 O   0  0  0  0  0  0  0  0  0  0  0  0
   32.0707   37.2617   62.3702 C   0  0  0  0  0  0  0  0  0  0  0  0
   32.5013   37.7916   63.3775 O   0  0  0  0  0  0  0  0  0  0  0  0
   31.0830   34.8011   64.6605 H   0  0  0  0  0  0  0  0  0  0  0  0
   31.0536   34.8229   66.4401 H   0  0  0  0  0  0  0  0  0  0  0  0
   30.1173   33.5989   65.5495 H   0  0  0  0  0  0  0  0  0  0  0  0
   29.5892   37.0275   67.6335 H   0  0  0  0  0  0  0  0  0  0  0  0
   30.0716   39.4360   67.6119 H   0  0  0  0  0  0  0  0  0  0  0  0
   30.3558   40.6306   65.4810 H   0  0  0  0  0  0  0  0  0  0  0  0
   30.1600   39.4273   63.3501 H   0  0  0  0  0  0  0  0  0  0  0  0
   28.7184   36.2919   62.7655 H   0  0  0  0  0  0  0  0  0  0  0  0
   32.8122   37.9591   58.3402 H   0  0  0  0  0  0  0  0  0  0  0  0
   33.4550   37.2300   56.0810 H   0  0  0  0  0  0  0  0  0  0  0  0
   35.4831   34.5622   55.5414 H   0  0  0  0  0  0  0  0  0  0  0  0
   35.1425   34.7592   53.8055 H   0  0  0  0  0  0  0  0  0  0  0  0
   35.0036   36.1532   54.9035 H   0  0  0  0  0  0  0  0  0  0  0  0
   32.1427   32.9784   55.1044 H   0  0  0  0  0  0  0  0  0  0  0  0
   33.4718   32.9052   53.9229 H   0  0  0  0  0  0  0  0  0  0  0  0
   33.8124   32.7082   55.6587 H   0  0  0  0  0  0  0  0  0  0  0  0
   32.6599   36.5325   54.1254 H   0  0  0  0  0  0  0  0  0  0  0  0
   32.7988   35.1385   53.0274 H   0  0  0  0  0  0  0  0  0  0  0  0
   31.4696   35.2117   54.2090 H   0  0  0  0  0  0  0  0  0  0  0  0
   32.4722   33.1999   57.0796 H   0  0  0  0  0  0  0  0  0  0  0  0
   31.8340   33.9052   59.3477 H   0  0  0  0  0  0  0  0  0  0  0  0
  1  2  1  0  0  0  0
  1 26  1  0  0  0  0
  1 27  1  0  0  0  0
  1 28  1  0  0  0  0
  2  3  1  0  0  0  0
  3  8  2  0  0  0  0
  3  4  1  0  0  0  0
  4  5  2  0  0  0  0
  4 29  1  0  0  0  0
  5  6  1  0  0  0  0
  5 30  1  0  0  0  0
  6  7  2  0  0  0  0
  6 31  1  0  0  0  0
  7  8  1  0  0  0  0
  7 32  1  0  0  0  0
  8  9  1  0  0  0  0
  9 10  2  0  0  0  0
  9 33  1  0  0  0  0
 10 24  1  0  0  0  0
 10 11  1  0  0  0  0
 11 12  2  0  0  0  0
 12 13  1  0  0  0  0
 12 23  1  0  0  0  0
 13 22  2  0  0  0  0
 13 14  1  0  0  0  0
 14 15  2  0  0  0  0
 14 34  1  0  0  0  0
 15 16  1  0  0  0  0
 15 35  1  0  0  0  0
 16 17  1  0  0  0  0
 16 21  2  0  0  0  0
 17 18  1  0  0  0  0
 17 19  1  0  0  0  0
 17 20  1  0  0  0  0
 18 36  1  0  0  0  0
 18 37  1  0  0  0  0
 18 38  1  0  0  0  0
 19 39  1  0  0  0  0
 19 40  1  0  0  0  0
 19 41  1  0  0  0  0
 20 42  1  0  0  0  0
 20 43  1  0  0  0  0
 20 44  1  0  0  0  0
 21 22  1  0  0  0  0
 21 45  1  0  0  0  0
 22 46  1  0  0  0  0
 23 24  1  0  0  0  0
 24 25  2  0  0  0  0
M  END
$$$$
