ZINC000000032527      none
 OpenBabel11202420153D

 23 25  0  0  1  0  0  0  0  0999 V2000
   32.5287   37.1749   63.5674 O   0  0  0  0  0  0  0  0  0  0  0  0
   32.0114   36.9372   62.5017 C   0  0  0  0  0  0  0  0  0  0  0  0
   30.6422   37.4197   62.0725 C   0  0  0  0  0  0  0  0  0  0  0  0
   30.4288   36.8073   60.6688 C   0  0  0  0  0  0  0  0  0  0  0  0
   31.5331   35.7355   60.6160 C   0  0  1  0  0  0  0  0  0  0  0  0
   32.5650   36.2056   61.5215 O   0  0  0  0  0  0  0  0  0  0  0  0
   31.0111   34.4476   61.0199 O   0  0  0  0  0  0  0  0  0  0  0  0
   31.1842   33.5761   60.0090 C   0  0  0  0  0  0  0  0  0  0  0  0
   30.8521   32.4079   60.0335 O   0  0  0  0  0  0  0  0  0  0  0  0
   31.8298   34.2467   58.8648 C   0  0  0  0  0  0  0  0  0  0  0  0
   32.2132   33.7960   57.6006 C   0  0  0  0  0  0  0  0  0  0  0  0
   32.8118   34.6668   56.7139 C   0  0  0  0  0  0  0  0  0  0  0  0
   33.0341   35.9849   57.0723 C   0  0  0  0  0  0  0  0  0  0  0  0
   32.6564   36.4400   58.3243 C   0  0  0  0  0  0  0  0  0  0  0  0
   32.0572   35.5817   59.2168 C   0  0  0  0  0  0  0  0  0  0  0  0
   30.6234   38.5081   62.0183 H   0  0  0  0  0  0  0  0  0  0  0  0
   29.8795   37.0600   62.7632 H   0  0  0  0  0  0  0  0  0  0  0  0
   30.5759   37.5564   59.8908 H   0  0  0  0  0  0  0  0  0  0  0  0
   29.4413   36.3530   60.5882 H   0  0  0  0  0  0  0  0  0  0  0  0
   32.0420   32.7680   57.3176 H   0  0  0  0  0  0  0  0  0  0  0  0
   33.1085   34.3182   55.7357 H   0  0  0  0  0  0  0  0  0  0  0  0
   33.5040   36.6608   56.3732 H   0  0  0  0  0  0  0  0  0  0  0  0
   32.8316   37.4694   58.6001 H   0  0  0  0  0  0  0  0  0  0  0  0
  1  2  2  0  0  0  0
  2  6  1  0  0  0  0
  2  3  1  0  0  0  0
  3  4  1  0  0  0  0
  3 16  1  0  0  0  0
  3 17  1  0  0  0  0
  4  5  1  0  0  0  0
  4 18  1  0  0  0  0
  4 19  1  0  0  0  0
  5 15  1  6  0  0  0
  5  6  1  0  0  0  0
  5  7  1  0  0  0  0
  7  8  1  0  0  0  0
  8  9  2  0  0  0  0
  8 10  1  0  0  0  0
 10 15  2  0  0  0  0
 10 11  1  0  0  0  0
 11 12  2  0  0  0  0
 11 20  1  0  0  0  0
 12 13  1  0  0  0  0
 12 21  1  0  0  0  0
 13 14  2  0  0  0  0
 13 22  1  0  0  0  0
 14 15  1  0  0  0  0
 14 23  1  0  0  0  0
M  END
$$$$
