ZINC000000054481      none
 OpenBabel11202420153D

 24 25  0  0  0  0  0  0  0  0999 V2000
   33.0562   38.6996   66.1139 N   0  0  0  0  0  0  0  0  0  0  0  0
   32.6498   38.1093   64.9509 N   0  0  0  0  0  0  0  0  0  0  0  0
   33.1324   36.9310   64.4358 C   0  0  0  0  0  0  0  0  0  0  0  0
   32.5189   36.6788   63.3246 N   0  0  0  0  0  0  0  0  0  0  0  0
   31.6024   37.7125   63.0877 N   0  0  0  0  0  0  0  0  0  0  0  0
   30.6980   37.8251   61.9407 C   0  0  0  0  0  0  0  0  0  0  0  0
   31.4513   37.5093   60.6743 C   0  0  0  0  0  0  0  0  0  0  0  0
   32.0826   38.5210   59.9748 C   0  0  0  0  0  0  0  0  0  0  0  0
   32.7775   38.2304   58.8158 C   0  0  0  0  0  0  0  0  0  0  0  0
   32.8326   36.9300   58.3505 C   0  0  0  0  0  0  0  0  0  0  0  0
   32.1969   35.9191   59.0470 C   0  0  0  0  0  0  0  0  0  0  0  0
   31.5064   36.2088   60.2089 C   0  0  0  0  0  0  0  0  0  0  0  0
   31.7066   38.5839   64.1128 C   0  0  0  0  0  0  0  0  0  0  0  0
   31.0632   39.6083   64.2567 O   0  0  0  0  0  0  0  0  0  0  0  0
   33.7744   38.1529   66.5650 H   0  0  0  0  0  0  0  0  0  0  0  0
   33.3706   39.6441   65.9495 H   0  0  0  0  0  0  0  0  0  0  0  0
   33.8978   36.3156   64.8848 H   0  0  0  0  0  0  0  0  0  0  0  0
   29.8733   37.1222   62.0578 H   0  0  0  0  0  0  0  0  0  0  0  0
   30.3052   38.8404   61.8861 H   0  0  0  0  0  0  0  0  0  0  0  0
   32.0357   39.5377   60.3360 H   0  0  0  0  0  0  0  0  0  0  0  0
   33.2738   39.0202   58.2714 H   0  0  0  0  0  0  0  0  0  0  0  0
   33.3718   36.7037   57.4425 H   0  0  0  0  0  0  0  0  0  0  0  0
   32.2397   34.9031   58.6833 H   0  0  0  0  0  0  0  0  0  0  0  0
   31.0095   35.4191   60.7529 H   0  0  0  0  0  0  0  0  0  0  0  0
  1  2  1  0  0  0  0
  1 15  1  0  0  0  0
  1 16  1  0  0  0  0
  2 13  1  0  0  0  0
  2  3  1  0  0  0  0
  3  4  2  0  0  0  0
  3 17  1  0  0  0  0
  4  5  1  0  0  0  0
  5  6  1  0  0  0  0
  5 13  1  0  0  0  0
  6  7  1  0  0  0  0
  6 18  1  0  0  0  0
  6 19  1  0  0  0  0
  7 12  2  0  0  0  0
  7  8  1  0  0  0  0
  8  9  2  0  0  0  0
  8 20  1  0  0  0  0
  9 10  1  0  0  0  0
  9 21  1  0  0  0  0
 10 11  2  0  0  0  0
 10 22  1  0  0  0  0
 11 12  1  0  0  0  0
 11 23  1  0  0  0  0
 12 24  1  0  0  0  0
 13 14  2  0  0  0  0
M  END
$$$$
