ZINC000000020317      none
 OpenBabel11202420153D

 45 46  0  0  1  0  0  0  0  0999 V2000
   30.9807   40.5498   66.8945 C   0  0  0  0  0  0  0  0  0  0  0  0
   30.7158   39.1896   66.2461 C   0  0  0  0  0  0  0  0  0  0  0  0
   29.3187   38.6095   66.4759 C   0  0  0  0  0  0  0  0  0  0  0  0
   31.3859   38.9061   64.9003 C   0  0  0  0  0  0  0  0  0  0  0  0
   30.6194   38.0767   63.9023 C   0  0  0  0  0  0  0  0  0  0  0  0
   29.5084   38.4182   63.5561 O   0  0  0  0  0  0  0  0  0  0  0  0
   31.1685   36.9554   63.3948 N   0  0  0  0  0  0  0  0  0  0  0  0
   30.4234   36.1490   62.4248 C   0  0  1  0  0  0  0  0  0  0  0  0
   29.7625   36.7951   61.8468 H   0  0  0  0  0  0  0  0  0  0  0  0
   31.4048   35.4495   61.4823 C   0  0  0  0  0  0  0  0  0  0  0  0
   31.8623   36.4192   60.4234 C   0  0  0  0  0  0  0  0  0  0  0  0
   32.2101   35.9578   59.1675 C   0  0  0  0  0  0  0  0  0  0  0  0
   32.6290   36.8474   58.1959 C   0  0  0  0  0  0  0  0  0  0  0  0
   32.6996   38.1983   58.4799 C   0  0  0  0  0  0  0  0  0  0  0  0
   32.3569   38.6592   59.7373 C   0  0  0  0  0  0  0  0  0  0  0  0
   31.9338   37.7701   60.7076 C   0  0  0  0  0  0  0  0  0  0  0  0
   29.6043   35.1158   63.1543 C   0  0  0  0  0  0  0  0  0  0  0  0
   28.3460   35.4041   63.5419 N   0  0  0  0  0  0  0  0  0  0  0  0
   30.0771   34.0248   63.3926 O   0  0  0  0  0  0  0  0  0  0  0  0
   31.8855   38.2055   66.1654 C   0  0  0  0  0  0  0  0  0  0  0  0
   31.5686   36.7167   66.3205 C   0  0  0  0  0  0  0  0  0  0  0  0
   33.2298   38.6575   66.7392 C   0  0  0  0  0  0  0  0  0  0  0  0
   30.0657   41.1422   66.8828 H   0  0  0  0  0  0  0  0  0  0  0  0
   31.3060   40.4042   67.9245 H   0  0  0  0  0  0  0  0  0  0  0  0
   31.7588   41.0722   66.3381 H   0  0  0  0  0  0  0  0  0  0  0  0
   29.3344   37.5369   66.2825 H   0  0  0  0  0  0  0  0  0  0  0  0
   29.0162   38.7884   67.5076 H   0  0  0  0  0  0  0  0  0  0  0  0
   28.6104   39.0900   65.8009 H   0  0  0  0  0  0  0  0  0  0  0  0
   32.0153   39.6887   64.4765 H   0  0  0  0  0  0  0  0  0  0  0  0
   32.0571   36.6823   63.6718 H   0  0  0  0  0  0  0  0  0  0  0  0
   30.9113   34.6007   61.0088 H   0  0  0  0  0  0  0  0  0  0  0  0
   32.2663   35.0984   62.0502 H   0  0  0  0  0  0  0  0  0  0  0  0
   32.1543   34.9023   58.9454 H   0  0  0  0  0  0  0  0  0  0  0  0
   32.9006   36.4869   57.2148 H   0  0  0  0  0  0  0  0  0  0  0  0
   33.0268   38.8933   57.7207 H   0  0  0  0  0  0  0  0  0  0  0  0
   32.4163   39.7142   59.9606 H   0  0  0  0  0  0  0  0  0  0  0  0
   31.6618   38.1306   61.6886 H   0  0  0  0  0  0  0  0  0  0  0  0
   27.9678   36.2768   63.3513 H   0  0  0  0  0  0  0  0  0  0  0  0
   27.8187   34.7390   64.0114 H   0  0  0  0  0  0  0  0  0  0  0  0
   32.4897   36.1391   66.2419 H   0  0  0  0  0  0  0  0  0  0  0  0
   31.1122   36.5419   67.2947 H   0  0  0  0  0  0  0  0  0  0  0  0
   30.8783   36.4084   65.5353 H   0  0  0  0  0  0  0  0  0  0  0  0
   33.5676   39.5504   66.2132 H   0  0  0  0  0  0  0  0  0  0  0  0
   33.1151   38.8822   67.7997 H   0  0  0  0  0  0  0  0  0  0  0  0
   33.9645   37.8622   66.6137 H   0  0  0  0  0  0  0  0  0  0  0  0
  1  2  1  0  0  0  0
  1 23  1  0  0  0  0
  1 24  1  0  0  0  0
  1 25  1  0  0  0  0
  2 20  1  0  0  0  0
  2  3  1  0  0  0  0
  2  4  1  0  0  0  0
  3 26  1  0  0  0  0
  3 27  1  0  0  0  0
  3 28  1  0  0  0  0
  4  5  1  0  0  0  0
  4 20  1  0  0  0  0
  4 29  1  0  0  0  0
  5  6  2  0  0  0  0
  5  7  1  0  0  0  0
  7  8  1  0  0  0  0
  7 30  1  0  0  0  0
  8  9  1  6  0  0  0
  8 10  1  0  0  0  0
  8 17  1  0  0  0  0
 10 11  1  0  0  0  0
 10 31  1  0  0  0  0
 10 32  1  0  0  0  0
 11 16  2  0  0  0  0
 11 12  1  0  0  0  0
 12 13  2  0  0  0  0
 12 33  1  0  0  0  0
 13 14  1  0  0  0  0
 13 34  1  0  0  0  0
 14 15  2  0  0  0  0
 14 35  1  0  0  0  0
 15 16  1  0  0  0  0
 15 36  1  0  0  0  0
 16 37  1  0  0  0  0
 17 18  1  0  0  0  0
 17 19  2  0  0  0  0
 18 38  1  0  0  0  0
 18 39  1  0  0  0  0
 20 21  1  0  0  0  0
 20 22  1  0  0  0  0
 21 40  1  0  0  0  0
 21 41  1  0  0  0  0
 21 42  1  0  0  0  0
 22 43  1  0  0  0  0
 22 44  1  0  0  0  0
 22 45  1  0  0  0  0
M  END
$$$$
