ZINC000000054944      none
 OpenBabel11202420153D

 29 31  0  0  0  0  0  0  0  0999 V2000
   31.7263   35.2857   59.7081 N   0  0  0  0  0  0  0  0  0  0  0  0
   32.0156   36.6308   59.8526 C   0  0  0  0  0  0  0  0  0  0  0  0
   31.8413   37.4056   60.9848 C   0  0  0  0  0  0  0  0  0  0  0  0
   31.3249   36.9478   62.2188 C   0  0  0  0  0  0  0  0  0  0  0  0
   30.9918   35.7825   62.3452 O   0  0  0  0  0  0  0  0  0  0  0  0
   31.1891   37.8832   63.3559 C   0  0  0  0  0  0  0  0  0  0  0  0
   32.2400   38.0422   64.2617 C   0  0  0  0  0  0  0  0  0  0  0  0
   32.1097   38.9189   65.3176 C   0  0  0  0  0  0  0  0  0  0  0  0
   30.9341   39.6343   65.4868 C   0  0  0  0  0  0  0  0  0  0  0  0
   30.8096   40.4880   66.5266 F   0  0  0  0  0  0  0  0  0  0  0  0
   29.8859   39.4765   64.5931 C   0  0  0  0  0  0  0  0  0  0  0  0
   30.0075   38.6063   63.5311 C   0  0  0  0  0  0  0  0  0  0  0  0
   32.2422   38.6708   60.7244 O   0  0  0  0  0  0  0  0  0  0  0  0
   32.6840   38.7888   59.4562 C   0  0  0  0  0  0  0  0  0  0  0  0
   33.1881   39.8602   58.7269 C   0  0  0  0  0  0  0  0  0  0  0  0
   33.5691   39.6793   57.4147 C   0  0  0  0  0  0  0  0  0  0  0  0
   33.4558   38.4359   56.8086 C   0  0  0  0  0  0  0  0  0  0  0  0
   32.9626   37.3691   57.5063 C   0  0  0  0  0  0  0  0  0  0  0  0
   32.5716   37.5323   58.8360 C   0  0  0  0  0  0  0  0  0  0  0  0
   31.8910   34.8425   58.8611 H   0  0  0  0  0  0  0  0  0  0  0  0
   31.3590   34.7858   60.4537 H   0  0  0  0  0  0  0  0  0  0  0  0
   33.1544   37.4823   64.1330 H   0  0  0  0  0  0  0  0  0  0  0  0
   32.9230   39.0451   66.0168 H   0  0  0  0  0  0  0  0  0  0  0  0
   28.9724   40.0363   64.7295 H   0  0  0  0  0  0  0  0  0  0  0  0
   29.1901   38.4835   62.8359 H   0  0  0  0  0  0  0  0  0  0  0  0
   33.2809   40.8325   59.1878 H   0  0  0  0  0  0  0  0  0  0  0  0
   33.9642   40.5130   56.8534 H   0  0  0  0  0  0  0  0  0  0  0  0
   33.7587   38.3108   55.7796 H   0  0  0  0  0  0  0  0  0  0  0  0
   32.8763   36.4034   57.0306 H   0  0  0  0  0  0  0  0  0  0  0  0
  1  2  1  0  0  0  0
  1 20  1  0  0  0  0
  1 21  1  0  0  0  0
  2 19  1  0  0  0  0
  2  3  2  0  0  0  0
  3  4  1  0  0  0  0
  3 13  1  0  0  0  0
  4  5  2  0  0  0  0
  4  6  1  0  0  0  0
  6 12  2  0  0  0  0
  6  7  1  0  0  0  0
  7  8  2  0  0  0  0
  7 22  1  0  0  0  0
  8  9  1  0  0  0  0
  8 23  1  0  0  0  0
  9 10  1  0  0  0  0
  9 11  2  0  0  0  0
 11 12  1  0  0  0  0
 11 24  1  0  0  0  0
 12 25  1  0  0  0  0
 13 14  1  0  0  0  0
 14 19  2  0  0  0  0
 14 15  1  0  0  0  0
 15 16  2  0  0  0  0
 15 26  1  0  0  0  0
 16 17  1  0  0  0  0
 16 27  1  0  0  0  0
 17 18  2  0  0  0  0
 17 28  1  0  0  0  0
 18 19  1  0  0  0  0
 18 29  1  0  0  0  0
M  END
$$$$
