ZINC000000003130      none
 OpenBabel11202420153D

 34 36  0  0  0  0  0  0  0  0999 V2000
   31.9027   37.1535   60.5180 O   0  0  0  0  0  0  0  0  0  0  0  0
   31.8844   38.3413   60.7759 C   0  0  0  0  0  0  0  0  0  0  0  0
   31.4343   38.7639   61.9739 N   0  0  0  0  0  0  0  0  0  0  0  0
   30.9671   37.7917   62.9654 C   0  0  0  0  0  0  0  0  0  0  0  0
   31.8034   37.9061   64.2138 C   0  0  0  0  0  0  0  0  0  0  0  0
   32.9470   37.1421   64.3521 C   0  0  0  0  0  0  0  0  0  0  0  0
   33.7167   37.2506   65.4953 C   0  0  0  0  0  0  0  0  0  0  0  0
   33.3370   38.1154   66.5047 C   0  0  0  0  0  0  0  0  0  0  0  0
   32.1905   38.8756   66.3686 C   0  0  0  0  0  0  0  0  0  0  0  0
   31.4237   38.7710   65.2232 C   0  0  0  0  0  0  0  0  0  0  0  0
   32.3142   39.2356   59.8638 N   0  0  0  0  0  0  0  0  0  0  0  0
   32.7765   38.8015   58.6334 C   0  0  0  0  0  0  0  0  0  0  0  0
   33.2155   39.5806   57.6780 N   0  0  0  0  0  0  0  0  0  0  0  0
   33.5895   38.8276   56.6107 C   0  0  0  0  0  0  0  0  0  0  0  0
   34.1161   39.1372   55.3541 C   0  0  0  0  0  0  0  0  0  0  0  0
   34.4009   38.1264   54.4641 C   0  0  0  0  0  0  0  0  0  0  0  0
   34.1695   36.8018   54.8054 C   0  0  0  0  0  0  0  0  0  0  0  0
   33.6501   36.4793   56.0419 C   0  0  0  0  0  0  0  0  0  0  0  0
   33.3567   37.4848   56.9510 C   0  0  0  0  0  0  0  0  0  0  0  0
   32.8422   37.4973   58.2362 N   0  0  0  0  0  0  0  0  0  0  0  0
   32.5777   36.7232   58.7574 H   0  0  0  0  0  0  0  0  0  0  0  0
   31.4197   39.7117   62.1797 H   0  0  0  0  0  0  0  0  0  0  0  0
   29.9236   37.9925   63.2075 H   0  0  0  0  0  0  0  0  0  0  0  0
   31.0585   36.7848   62.5579 H   0  0  0  0  0  0  0  0  0  0  0  0
   33.2413   36.4631   63.5654 H   0  0  0  0  0  0  0  0  0  0  0  0
   34.6123   36.6564   65.6017 H   0  0  0  0  0  0  0  0  0  0  0  0
   33.9359   38.1969   67.3996 H   0  0  0  0  0  0  0  0  0  0  0  0
   31.8936   39.5510   67.1574 H   0  0  0  0  0  0  0  0  0  0  0  0
   30.5278   39.3647   65.1171 H   0  0  0  0  0  0  0  0  0  0  0  0
   32.2996   40.1834   60.0696 H   0  0  0  0  0  0  0  0  0  0  0  0
   34.2993   40.1663   55.0820 H   0  0  0  0  0  0  0  0  0  0  0  0
   34.8079   38.3663   53.4930 H   0  0  0  0  0  0  0  0  0  0  0  0
   34.3978   36.0180   54.0985 H   0  0  0  0  0  0  0  0  0  0  0  0
   33.4719   35.4462   56.3014 H   0  0  0  0  0  0  0  0  0  0  0  0
  1  2  2  0  0  0  0
  2  3  1  0  0  0  0
  2 11  1  0  0  0  0
  3  4  1  0  0  0  0
  3 22  1  0  0  0  0
  4  5  1  0  0  0  0
  4 23  1  0  0  0  0
  4 24  1  0  0  0  0
  5 10  2  0  0  0  0
  5  6  1  0  0  0  0
  6  7  2  0  0  0  0
  6 25  1  0  0  0  0
  7  8  1  0  0  0  0
  7 26  1  0  0  0  0
  8  9  2  0  0  0  0
  8 27  1  0  0  0  0
  9 10  1  0  0  0  0
  9 28  1  0  0  0  0
 10 29  1  0  0  0  0
 11 12  1  0  0  0  0
 11 30  1  0  0  0  0
 12 20  1  0  0  0  0
 12 13  2  0  0  0  0
 13 14  1  0  0  0  0
 14 19  2  0  0  0  0
 14 15  1  0  0  0  0
 15 16  2  0  0  0  0
 15 31  1  0  0  0  0
 16 17  1  0  0  0  0
 16 32  1  0  0  0  0
 17 18  2  0  0  0  0
 17 33  1  0  0  0  0
 18 19  1  0  0  0  0
 18 34  1  0  0  0  0
 19 20  1  0  0  0  0
 20 21  1  0  0  0  0
M  END
$$$$
