ZINC000000013854      none
 OpenBabel11202420153D

 35 37  0  0  0  0  0  0  0  0999 V2000
   29.3769   36.4499   64.3613 C   0  0  0  0  0  0  0  0  0  0  0  0
   30.6942   35.7303   64.0649 C   0  0  0  0  0  0  0  0  0  0  0  0
   31.7519   36.1107   65.1029 C   0  0  0  0  0  0  0  0  0  0  0  0
   31.1521   36.0532   62.7462 O   0  0  0  0  0  0  0  0  0  0  0  0
   31.2131   34.9154   62.0240 C   0  0  0  0  0  0  0  0  0  0  0  0
   31.6263   34.8566   60.6693 C   0  0  0  0  0  0  0  0  0  0  0  0
   31.9889   35.9877   60.0233 C   0  0  0  0  0  0  0  0  0  0  0  0
   32.4169   35.9268   58.6198 C   0  0  0  0  0  0  0  0  0  0  0  0
   32.4553   34.7182   57.9221 C   0  0  0  0  0  0  0  0  0  0  0  0
   32.8670   34.7087   56.5958 C   0  0  0  0  0  0  0  0  0  0  0  0
   33.2261   35.7961   55.9602 N   0  0  0  0  0  0  0  0  0  0  0  0
   33.2238   36.9995   56.5397 C   0  0  0  0  0  0  0  0  0  0  0  0
   33.6155   38.1495   55.8310 C   0  0  0  0  0  0  0  0  0  0  0  0
   33.6022   39.3612   56.4511 C   0  0  0  0  0  0  0  0  0  0  0  0
   33.2062   39.4844   57.7807 C   0  0  0  0  0  0  0  0  0  0  0  0
   32.8205   38.3908   58.4987 C   0  0  0  0  0  0  0  0  0  0  0  0
   32.8163   37.1321   57.8898 C   0  0  0  0  0  0  0  0  0  0  0  0
   30.8274   33.8197   62.7602 C   0  0  0  0  0  0  0  0  0  0  0  0
   30.4836   34.2308   64.0535 C   0  0  0  0  0  0  0  0  0  0  0  0
   30.0986   33.5327   64.9718 O   0  0  0  0  0  0  0  0  0  0  0  0
   29.5391   37.5276   64.3409 H   0  0  0  0  0  0  0  0  0  0  0  0
   29.0159   36.1555   65.3467 H   0  0  0  0  0  0  0  0  0  0  0  0
   28.6375   36.1793   63.6076 H   0  0  0  0  0  0  0  0  0  0  0  0
   31.4111   35.8133   66.0947 H   0  0  0  0  0  0  0  0  0  0  0  0
   32.6873   35.6008   64.8721 H   0  0  0  0  0  0  0  0  0  0  0  0
   31.9109   37.1887   65.0815 H   0  0  0  0  0  0  0  0  0  0  0  0
   31.6515   33.9082   60.1532 H   0  0  0  0  0  0  0  0  0  0  0  0
   31.9637   36.9362   60.5394 H   0  0  0  0  0  0  0  0  0  0  0  0
   32.1669   33.7985   58.4094 H   0  0  0  0  0  0  0  0  0  0  0  0
   32.8925   33.7670   56.0676 H   0  0  0  0  0  0  0  0  0  0  0  0
   33.9257   38.0716   54.7994 H   0  0  0  0  0  0  0  0  0  0  0  0
   33.9041   40.2415   55.9031 H   0  0  0  0  0  0  0  0  0  0  0  0
   33.2047   40.4577   58.2491 H   0  0  0  0  0  0  0  0  0  0  0  0
   32.5154   38.4971   59.5293 H   0  0  0  0  0  0  0  0  0  0  0  0
   30.7944   32.8028   62.3977 H   0  0  0  0  0  0  0  0  0  0  0  0
  1  2  1  0  0  0  0
  1 21  1  0  0  0  0
  1 22  1  0  0  0  0
  1 23  1  0  0  0  0
  2 19  1  0  0  0  0
  2  3  1  0  0  0  0
  2  4  1  0  0  0  0
  3 24  1  0  0  0  0
  3 25  1  0  0  0  0
  3 26  1  0  0  0  0
  4  5  1  0  0  0  0
  5  6  1  0  0  0  0
  5 18  2  0  0  0  0
  6  7  2  0  0  0  0
  6 27  1  0  0  0  0
  7  8  1  0  0  0  0
  7 28  1  0  0  0  0
  8 17  2  0  0  0  0
  8  9  1  0  0  0  0
  9 10  2  0  0  0  0
  9 29  1  0  0  0  0
 10 11  1  0  0  0  0
 10 30  1  0  0  0  0
 11 12  2  0  0  0  0
 12 17  1  0  0  0  0
 12 13  1  0  0  0  0
 13 14  2  0  0  0  0
 13 31  1  0  0  0  0
 14 15  1  0  0  0  0
 14 32  1  0  0  0  0
 15 16  2  0  0  0  0
 15 33  1  0  0  0  0
 16 17  1  0  0  0  0
 16 34  1  0  0  0  0
 18 19  1  0  0  0  0
 18 35  1  0  0  0  0
 19 20  2  0  0  0  0
M  END
$$$$
