ZINC000000026355      none
 OpenBabel11202420153D

 46 48  0  0  0  0  0  0  0  0999 V2000
   29.1787   37.7022   67.9012 O   0  0  0  0  0  0  0  0  0  0  0  0
   30.1789   38.3385   67.6456 C   0  0  0  0  0  0  0  0  0  0  0  0
   31.4456   38.3311   68.4726 C   0  0  0  0  0  0  0  0  0  0  0  0
   32.5140   38.9406   67.5356 C   0  0  0  0  0  0  0  0  0  0  0  0
   31.6468   39.7879   66.5783 C   0  0  0  0  0  0  0  0  0  0  0  0
   30.3214   39.1576   66.5893 N   0  0  0  0  0  0  0  0  0  0  0  0
   29.2864   39.3913   65.5791 C   0  0  0  0  0  0  0  0  0  0  0  0
   29.8128   38.9759   64.2040 C   0  0  0  0  0  0  0  0  0  0  0  0
   30.1784   37.4904   64.2252 C   0  0  0  0  0  0  0  0  0  0  0  0
   30.6838   37.0915   62.9048 N   0  0  0  0  0  0  0  0  0  0  0  0
   31.9296   37.8008   62.5815 C   0  0  0  0  0  0  0  0  0  0  0  0
   32.4644   37.3005   61.2377 C   0  0  0  0  0  0  0  0  0  0  0  0
   31.4506   37.5214   60.1970 N   0  0  0  0  0  0  0  0  0  0  0  0
   31.9317   37.1418   58.9402 C   0  0  0  0  0  0  0  0  0  0  0  0
   32.3295   35.8303   58.7151 C   0  0  0  0  0  0  0  0  0  0  0  0
   32.7999   35.4563   57.4713 C   0  0  0  0  0  0  0  0  0  0  0  0
   32.8850   36.3903   56.4527 C   0  0  0  0  0  0  0  0  0  0  0  0
   33.3499   36.0234   55.2385 F   0  0  0  0  0  0  0  0  0  0  0  0
   32.4938   37.6996   56.6765 C   0  0  0  0  0  0  0  0  0  0  0  0
   32.0179   38.0767   57.9170 C   0  0  0  0  0  0  0  0  0  0  0  0
   30.2048   36.8120   60.5202 C   0  0  0  0  0  0  0  0  0  0  0  0
   29.6700   37.3125   61.8641 C   0  0  0  0  0  0  0  0  0  0  0  0
   31.3231   38.9472   69.3634 H   0  0  0  0  0  0  0  0  0  0  0  0
   31.7161   37.3115   68.7472 H   0  0  0  0  0  0  0  0  0  0  0  0
   33.0470   38.1605   66.9921 H   0  0  0  0  0  0  0  0  0  0  0  0
   33.2082   39.5697   68.0928 H   0  0  0  0  0  0  0  0  0  0  0  0
   32.0658   39.7675   65.5722 H   0  0  0  0  0  0  0  0  0  0  0  0
   31.5791   40.8147   66.9375 H   0  0  0  0  0  0  0  0  0  0  0  0
   28.4018   38.8029   65.8224 H   0  0  0  0  0  0  0  0  0  0  0  0
   29.0260   40.4497   65.5639 H   0  0  0  0  0  0  0  0  0  0  0  0
   29.0427   39.1499   63.4523 H   0  0  0  0  0  0  0  0  0  0  0  0
   30.6975   39.5644   63.9605 H   0  0  0  0  0  0  0  0  0  0  0  0
   30.9484   37.3165   64.9768 H   0  0  0  0  0  0  0  0  0  0  0  0
   29.2937   36.9021   64.4685 H   0  0  0  0  0  0  0  0  0  0  0  0
   31.7328   38.8711   62.5189 H   0  0  0  0  0  0  0  0  0  0  0  0
   32.6684   37.6116   63.3602 H   0  0  0  0  0  0  0  0  0  0  0  0
   32.6868   36.2357   61.3085 H   0  0  0  0  0  0  0  0  0  0  0  0
   33.3729   37.8458   60.9819 H   0  0  0  0  0  0  0  0  0  0  0  0
   32.2673   35.1025   59.5105 H   0  0  0  0  0  0  0  0  0  0  0  0
   33.1053   34.4356   57.2945 H   0  0  0  0  0  0  0  0  0  0  0  0
   32.5614   38.4264   55.8806 H   0  0  0  0  0  0  0  0  0  0  0  0
   31.7125   39.0979   58.0911 H   0  0  0  0  0  0  0  0  0  0  0  0
   30.4015   35.7418   60.5830 H   0  0  0  0  0  0  0  0  0  0  0  0
   29.4660   37.0013   59.7416 H   0  0  0  0  0  0  0  0  0  0  0  0
   28.7615   36.7671   62.1199 H   0  0  0  0  0  0  0  0  0  0  0  0
   29.4476   38.3772   61.7933 H   0  0  0  0  0  0  0  0  0  0  0  0
  1  2  2  0  0  0  0
  2  6  1  0  0  0  0
  2  3  1  0  0  0  0
  3  4  1  0  0  0  0
  3 23  1  0  0  0  0
  3 24  1  0  0  0  0
  4  5  1  0  0  0  0
  4 25  1  0  0  0  0
  4 26  1  0  0  0  0
  5  6  1  0  0  0  0
  5 27  1  0  0  0  0
  5 28  1  0  0  0  0
  6  7  1  0  0  0  0
  7  8  1  0  0  0  0
  7 29  1  0  0  0  0
  7 30  1  0  0  0  0
  8  9  1  0  0  0  0
  8 31  1  0  0  0  0
  8 32  1  0  0  0  0
  9 10  1  0  0  0  0
  9 33  1  0  0  0  0
  9 34  1  0  0  0  0
 10 22  1  0  0  0  0
 10 11  1  0  0  0  0
 11 12  1  0  0  0  0
 11 35  1  0  0  0  0
 11 36  1  0  0  0  0
 12 13  1  0  0  0  0
 12 37  1  0  0  0  0
 12 38  1  0  0  0  0
 13 14  1  0  0  0  0
 13 21  1  0  0  0  0
 14 20  2  0  0  0  0
 14 15  1  0  0  0  0
 15 16  2  0  0  0  0
 15 39  1  0  0  0  0
 16 17  1  0  0  0  0
 16 40  1  0  0  0  0
 17 18  1  0  0  0  0
 17 19  2  0  0  0  0
 19 20  1  0  0  0  0
 19 41  1  0  0  0  0
 20 42  1  0  0  0  0
 21 22  1  0  0  0  0
 21 43  1  0  0  0  0
 21 44  1  0  0  0  0
 22 45  1  0  0  0  0
 22 46  1  0  0  0  0
M  END
$$$$
