ZINC000000001766      none
 OpenBabel11202420153D

 30 32  0  0  0  0  0  0  0  0999 V2000
   33.0422   36.4566   58.7540 O   0  0  0  0  0  0  0  0  0  0  0  0
   32.9496   35.7310   57.7868 C   0  0  0  0  0  0  0  0  0  0  0  0
   32.4397   34.3221   57.9478 C   0  0  0  0  0  0  0  0  0  0  0  0
   32.1265   34.0742   59.3573 N   0  0  0  0  0  0  0  0  0  0  0  0
   32.9821   33.5808   60.3049 C   0  0  0  0  0  0  0  0  0  0  0  0
   32.2909   33.5174   61.4589 C   0  0  0  0  0  0  0  0  0  0  0  0
   31.0456   33.9553   61.2212 N   0  0  0  0  0  0  0  0  0  0  0  0
   30.9388   34.2876   59.9638 C   0  0  0  0  0  0  0  0  0  0  0  0
   33.3348   36.2261   56.4565 C   0  0  0  0  0  0  0  0  0  0  0  0
   33.2308   35.3773   55.3369 C   0  0  0  0  0  0  0  0  0  0  0  0
   33.5746   35.8138   54.0996 C   0  0  0  0  0  0  0  0  0  0  0  0
   34.0535   37.1257   53.9225 C   0  0  0  0  0  0  0  0  0  0  0  0
   34.4207   37.5963   52.6511 C   0  0  0  0  0  0  0  0  0  0  0  0
   34.8812   38.8699   52.5095 C   0  0  0  0  0  0  0  0  0  0  0  0
   34.9952   39.7186   53.6090 C   0  0  0  0  0  0  0  0  0  0  0  0
   34.6488   39.2985   54.8563 C   0  0  0  0  0  0  0  0  0  0  0  0
   34.1689   37.9892   55.0417 C   0  0  0  0  0  0  0  0  0  0  0  0
   33.8037   37.5248   56.3134 C   0  0  0  0  0  0  0  0  0  0  0  0
   33.2040   33.6190   57.6163 H   0  0  0  0  0  0  0  0  0  0  0  0
   31.5399   34.1904   57.3470 H   0  0  0  0  0  0  0  0  0  0  0  0
   34.0146   33.3007   60.1567 H   0  0  0  0  0  0  0  0  0  0  0  0
   32.6724   33.1742   62.4093 H   0  0  0  0  0  0  0  0  0  0  0  0
   30.0492   34.6727   59.4879 H   0  0  0  0  0  0  0  0  0  0  0  0
   32.8685   34.3679   55.4646 H   0  0  0  0  0  0  0  0  0  0  0  0
   33.4853   35.1529   53.2501 H   0  0  0  0  0  0  0  0  0  0  0  0
   34.3377   36.9508   51.7892 H   0  0  0  0  0  0  0  0  0  0  0  0
   35.1621   39.2279   51.5301 H   0  0  0  0  0  0  0  0  0  0  0  0
   35.3633   40.7242   53.4692 H   0  0  0  0  0  0  0  0  0  0  0  0
   34.7422   39.9669   55.6995 H   0  0  0  0  0  0  0  0  0  0  0  0
   33.8868   38.1719   57.1742 H   0  0  0  0  0  0  0  0  0  0  0  0
  1  2  2  0  0  0  0
  2  3  1  0  0  0  0
  2  9  1  0  0  0  0
  3  4  1  0  0  0  0
  3 19  1  0  0  0  0
  3 20  1  0  0  0  0
  4  8  1  0  0  0  0
  4  5  1  0  0  0  0
  5  6  2  0  0  0  0
  5 21  1  0  0  0  0
  6  7  1  0  0  0  0
  6 22  1  0  0  0  0
  7  8  2  0  0  0  0
  8 23  1  0  0  0  0
  9 18  2  0  0  0  0
  9 10  1  0  0  0  0
 10 11  2  0  0  0  0
 10 24  1  0  0  0  0
 11 12  1  0  0  0  0
 11 25  1  0  0  0  0
 12 17  2  0  0  0  0
 12 13  1  0  0  0  0
 13 14  2  0  0  0  0
 13 26  1  0  0  0  0
 14 15  1  0  0  0  0
 14 27  1  0  0  0  0
 15 16  2  0  0  0  0
 15 28  1  0  0  0  0
 16 17  1  0  0  0  0
 16 29  1  0  0  0  0
 17 18  1  0  0  0  0
 18 30  1  0  0  0  0
M  END
$$$$
