ZINC000000000298      none
 OpenBabel11202420153D

 27 28  0  0  1  0  0  0  0  0999 V2000
   29.5643   36.3778   60.2953 C   0  0  0  0  0  0  0  0  0  0  0  0
   30.4072   37.2576   61.2209 C   0  0  1  0  0  0  0  0  0  0  0  0
   30.2126   38.3069   60.9991 H   0  0  0  0  0  0  0  0  0  0  0  0
   30.0486   36.9806   62.6097 N   0  0  0  0  0  0  0  0  0  0  0  0
   30.9621   36.8817   63.5833 C   0  0  0  0  0  0  0  0  0  0  0  0
   30.5869   36.6841   64.7195 O   0  0  0  0  0  0  0  0  0  0  0  0
   32.4367   37.0074   63.3181 C   0  0  0  0  0  0  0  0  0  0  0  0
   32.6495   37.5921   62.0312 O   0  0  0  0  0  0  0  0  0  0  0  0
   31.8906   36.9571   60.9954 C   0  0  2  0  0  0  0  0  0  0  0  0
   32.0549   35.8802   61.0295 H   0  0  0  0  0  0  0  0  0  0  0  0
   32.3172   37.4950   59.6539 C   0  0  0  0  0  0  0  0  0  0  0  0
   32.2293   36.6962   58.5292 C   0  0  0  0  0  0  0  0  0  0  0  0
   32.6163   37.1910   57.2979 C   0  0  0  0  0  0  0  0  0  0  0  0
   33.1005   38.4816   57.1929 C   0  0  0  0  0  0  0  0  0  0  0  0
   33.1930   39.2789   58.3184 C   0  0  0  0  0  0  0  0  0  0  0  0
   32.8018   38.7854   59.5489 C   0  0  0  0  0  0  0  0  0  0  0  0
   29.7604   35.3281   60.5139 H   0  0  0  0  0  0  0  0  0  0  0  0
   28.5073   36.5908   60.4550 H   0  0  0  0  0  0  0  0  0  0  0  0
   29.8247   36.5877   59.2580 H   0  0  0  0  0  0  0  0  0  0  0  0
   29.1125   36.8636   62.8351 H   0  0  0  0  0  0  0  0  0  0  0  0
   32.8898   37.6386   64.0826 H   0  0  0  0  0  0  0  0  0  0  0  0
   32.8953   36.0189   63.3460 H   0  0  0  0  0  0  0  0  0  0  0  0
   31.8548   35.6865   58.6118 H   0  0  0  0  0  0  0  0  0  0  0  0
   32.5438   36.5684   56.4185 H   0  0  0  0  0  0  0  0  0  0  0  0
   33.4062   38.8671   56.2315 H   0  0  0  0  0  0  0  0  0  0  0  0
   33.5713   40.2871   58.2364 H   0  0  0  0  0  0  0  0  0  0  0  0
   32.8743   39.4082   60.4283 H   0  0  0  0  0  0  0  0  0  0  0  0
  1  2  1  0  0  0  0
  1 17  1  0  0  0  0
  1 18  1  0  0  0  0
  1 19  1  0  0  0  0
  2  3  1  6  0  0  0
  2  9  1  0  0  0  0
  2  4  1  0  0  0  0
  4  5  1  0  0  0  0
  4 20  1  0  0  0  0
  5  6  2  0  0  0  0
  5  7  1  0  0  0  0
  7  8  1  0  0  0  0
  7 21  1  0  0  0  0
  7 22  1  0  0  0  0
  8  9  1  0  0  0  0
  9 10  1  1  0  0  0
  9 11  1  0  0  0  0
 11 16  2  0  0  0  0
 11 12  1  0  0  0  0
 12 13  2  0  0  0  0
 12 23  1  0  0  0  0
 13 14  1  0  0  0  0
 13 24  1  0  0  0  0
 14 15  2  0  0  0  0
 14 25  1  0  0  0  0
 15 16  1  0  0  0  0
 15 26  1  0  0  0  0
 16 27  1  0  0  0  0
M  END
$$$$
