ZINC000000044150      none
 OpenBabel11202420153D

 35 38  0  0  0  0  0  0  0  0999 V2000
   30.5630   36.1689   64.7160 C   0  0  0  0  0  0  0  0  0  0  0  0
   31.5113   35.3438   63.8847 C   0  0  0  0  0  0  0  0  0  0  0  0
   32.6984   35.3816   64.1059 O   0  0  0  0  0  0  0  0  0  0  0  0
   31.0368   34.5664   62.8976 O   0  0  0  0  0  0  0  0  0  0  0  0
   31.4823   34.8244   61.6413 C   0  0  0  0  0  0  0  0  0  0  0  0
   31.5766   33.7874   60.7158 C   0  0  0  0  0  0  0  0  0  0  0  0
   32.0240   34.0329   59.4488 C   0  0  0  0  0  0  0  0  0  0  0  0
   32.3861   35.3294   59.0814 C   0  0  0  0  0  0  0  0  0  0  0  0
   32.8777   35.6299   57.7239 C   0  0  0  0  0  0  0  0  0  0  0  0
   32.9807   34.7619   56.8748 O   0  0  0  0  0  0  0  0  0  0  0  0
   33.2290   37.0338   57.4413 C   0  0  0  0  0  0  0  0  0  0  0  0
   33.7256   37.4324   56.1096 C   0  0  0  0  0  0  0  0  0  0  0  0
   34.0507   38.6362   55.7734 N   0  0  0  0  0  0  0  0  0  0  0  0
   34.4911   38.8423   54.5196 C   0  0  0  0  0  0  0  0  0  0  0  0
   34.9072   40.0493   53.9155 C   0  0  0  0  0  0  0  0  0  0  0  0
   35.3198   40.0673   52.6184 C   0  0  0  0  0  0  0  0  0  0  0  0
   35.3418   38.9029   51.8640 C   0  0  0  0  0  0  0  0  0  0  0  0
   34.9432   37.7107   52.4261 C   0  0  0  0  0  0  0  0  0  0  0  0
   34.5167   37.6726   53.7521 C   0  0  0  0  0  0  0  0  0  0  0  0
   33.9517   36.3373   54.7529 S   0  0  0  0  0  0  0  0  0  0  0  0
   33.0904   37.9543   58.4355 C   0  0  0  0  0  0  0  0  0  0  0  0
   32.6453   37.6346   59.6515 O   0  0  0  0  0  0  0  0  0  0  0  0
   32.2945   36.3828   60.0072 C   0  0  0  0  0  0  0  0  0  0  0  0
   31.8383   36.1157   61.2916 C   0  0  0  0  0  0  0  0  0  0  0  0
   29.8527   35.5113   65.2172 H   0  0  0  0  0  0  0  0  0  0  0  0
   31.1270   36.7299   65.4612 H   0  0  0  0  0  0  0  0  0  0  0  0
   30.0234   36.8622   64.0709 H   0  0  0  0  0  0  0  0  0  0  0  0
   31.2947   32.7847   61.0015 H   0  0  0  0  0  0  0  0  0  0  0  0
   32.0964   33.2266   58.7339 H   0  0  0  0  0  0  0  0  0  0  0  0
   34.8972   40.9655   54.4872 H   0  0  0  0  0  0  0  0  0  0  0  0
   35.6342   40.9988   52.1714 H   0  0  0  0  0  0  0  0  0  0  0  0
   35.6719   38.9315   50.8362 H   0  0  0  0  0  0  0  0  0  0  0  0
   34.9609   36.8047   51.8387 H   0  0  0  0  0  0  0  0  0  0  0  0
   33.3511   38.9823   58.2315 H   0  0  0  0  0  0  0  0  0  0  0  0
   31.7613   36.9134   62.0156 H   0  0  0  0  0  0  0  0  0  0  0  0
  1  2  1  0  0  0  0
  1 25  1  0  0  0  0
  1 26  1  0  0  0  0
  1 27  1  0  0  0  0
  2  3  2  0  0  0  0
  2  4  1  0  0  0  0
  4  5  1  0  0  0  0
  5 24  2  0  0  0  0
  5  6  1  0  0  0  0
  6  7  2  0  0  0  0
  6 28  1  0  0  0  0
  7  8  1  0  0  0  0
  7 29  1  0  0  0  0
  8 23  2  0  0  0  0
  8  9  1  0  0  0  0
  9 10  2  0  0  0  0
  9 11  1  0  0  0  0
 11 12  1  0  0  0  0
 11 21  2  0  0  0  0
 12 20  1  0  0  0  0
 12 13  2  0  0  0  0
 13 14  1  0  0  0  0
 14 19  2  0  0  0  0
 14 15  1  0  0  0  0
 15 16  2  0  0  0  0
 15 30  1  0  0  0  0
 16 17  1  0  0  0  0
 16 31  1  0  0  0  0
 17 18  2  0  0  0  0
 17 32  1  0  0  0  0
 18 19  1  0  0  0  0
 18 33  1  0  0  0  0
 19 20  1  0  0  0  0
 21 22  1  0  0  0  0
 21 34  1  0  0  0  0
 22 23  1  0  0  0  0
 23 24  1  0  0  0  0
 24 35  1  0  0  0  0
M  END
$$$$
