ZINC000000004188      none
 OpenBabel11202420153D

 25 26  0  0  0  0  0  0  0  0999 V2000
   32.7810   38.9298   56.2047 C   0  0  0  0  0  0  0  0  0  0  0  0
   33.6026   37.6406   56.2661 C   0  0  0  0  0  0  0  0  0  0  0  0
   33.0731   36.7740   57.3220 N   0  0  0  0  0  0  0  0  0  0  0  0
   32.8390   35.4172   57.2138 C   0  0  0  0  0  0  0  0  0  0  0  0
   33.0811   34.5918   56.0097 C   0  0  0  0  0  0  0  0  0  0  0  0
   33.9713   33.5189   56.0636 C   0  0  0  0  0  0  0  0  0  0  0  0
   34.1929   32.7528   54.9381 C   0  0  0  0  0  0  0  0  0  0  0  0
   33.5341   33.0471   53.7563 C   0  0  0  0  0  0  0  0  0  0  0  0
   33.8185   32.0792   52.3435 Cl  0  0  0  0  0  0  0  0  0  0  0  0
   32.6534   34.1140   53.6956 C   0  0  0  0  0  0  0  0  0  0  0  0
   32.4199   34.8834   54.8164 C   0  0  0  0  0  0  0  0  0  0  0  0
   32.3744   34.9847   58.3522 N   0  0  0  0  0  0  0  0  0  0  0  0
   32.2928   36.0744   59.2298 N   0  0  0  0  0  0  0  0  0  0  0  0
   31.9810   36.0493   60.1480 H   0  0  0  0  0  0  0  0  0  0  0  0
   32.7271   37.1647   58.5648 C   0  0  0  0  0  0  0  0  0  0  0  0
   32.7990   38.2966   59.0089 O   0  0  0  0  0  0  0  0  0  0  0  0
   33.1003   39.5236   55.3482 H   0  0  0  0  0  0  0  0  0  0  0  0
   31.7245   38.6828   56.1020 H   0  0  0  0  0  0  0  0  0  0  0  0
   32.9332   39.5017   57.1201 H   0  0  0  0  0  0  0  0  0  0  0  0
   34.6430   37.8828   56.4826 H   0  0  0  0  0  0  0  0  0  0  0  0
   33.5413   37.1247   55.3078 H   0  0  0  0  0  0  0  0  0  0  0  0
   34.4856   33.2885   56.9849 H   0  0  0  0  0  0  0  0  0  0  0  0
   34.8817   31.9219   54.9786 H   0  0  0  0  0  0  0  0  0  0  0  0
   32.1454   34.3414   52.7700 H   0  0  0  0  0  0  0  0  0  0  0  0
   31.7298   35.7128   54.7690 H   0  0  0  0  0  0  0  0  0  0  0  0
  1  2  1  0  0  0  0
  1 17  1  0  0  0  0
  1 18  1  0  0  0  0
  1 19  1  0  0  0  0
  2  3  1  0  0  0  0
  2 20  1  0  0  0  0
  2 21  1  0  0  0  0
  3 15  1  0  0  0  0
  3  4  1  0  0  0  0
  4  5  1  0  0  0  0
  4 12  2  0  0  0  0
  5 11  2  0  0  0  0
  5  6  1  0  0  0  0
  6  7  2  0  0  0  0
  6 22  1  0  0  0  0
  7  8  1  0  0  0  0
  7 23  1  0  0  0  0
  8  9  1  0  0  0  0
  8 10  2  0  0  0  0
 10 11  1  0  0  0  0
 10 24  1  0  0  0  0
 11 25  1  0  0  0  0
 12 13  1  0  0  0  0
 13 14  1  0  0  0  0
 13 15  1  0  0  0  0
 15 16  2  0  0  0  0
M  END
$$$$
