ZINC000000000287      none
 OpenBabel11202420153D

 38 40  0  0  1  0  0  0  0  0999 V2000
   32.7488   37.4414   63.7135 O   0  0  0  0  0  0  0  0  0  0  0  0
   31.7771   36.7156   63.7101 C   0  0  0  0  0  0  0  0  0  0  0  0
   31.0223   36.2722   64.9439 C   0  0  1  0  0  0  0  0  0  0  0  0
   31.7167   35.9638   65.7254 H   0  0  0  0  0  0  0  0  0  0  0  0
   30.1508   37.3507   65.4286 N   0  0  0  0  0  0  0  0  0  0  0  0
   30.7797   38.6634   65.2335 C   0  0  0  0  0  0  0  0  0  0  0  0
   29.7892   39.7665   65.6132 C   0  0  0  0  0  0  0  0  0  0  0  0
   29.3737   39.5912   67.0765 C   0  0  0  0  0  0  0  0  0  0  0  0
   28.7661   38.1981   67.2630 C   0  0  0  0  0  0  0  0  0  0  0  0
   29.7862   37.1405   66.8355 C   0  0  0  0  0  0  0  0  0  0  0  0
   30.1782   35.0703   64.4605 C   0  0  0  0  0  0  0  0  0  0  0  0
   30.0447   35.3689   62.9489 C   0  0  0  0  0  0  0  0  0  0  0  0
   31.2139   36.1883   62.6093 N   0  0  0  0  0  0  0  0  0  0  0  0
   31.6791   36.3986   61.3064 C   0  0  0  0  0  0  0  0  0  0  0  0
   31.5064   35.4173   60.3391 C   0  0  0  0  0  0  0  0  0  0  0  0
   31.9717   35.6255   59.0555 C   0  0  0  0  0  0  0  0  0  0  0  0
   32.6087   36.8097   58.7331 C   0  0  0  0  0  0  0  0  0  0  0  0
   32.7828   37.7887   59.6941 C   0  0  0  0  0  0  0  0  0  0  0  0
   32.3197   37.5866   60.9795 C   0  0  0  0  0  0  0  0  0  0  0  0
   31.6661   38.7386   65.8634 H   0  0  0  0  0  0  0  0  0  0  0  0
   31.0665   38.7768   64.1881 H   0  0  0  0  0  0  0  0  0  0  0  0
   28.9085   39.7004   64.9744 H   0  0  0  0  0  0  0  0  0  0  0  0
   30.2609   40.7405   65.4830 H   0  0  0  0  0  0  0  0  0  0  0  0
   28.6354   40.3488   67.3387 H   0  0  0  0  0  0  0  0  0  0  0  0
   30.2478   39.6964   67.7193 H   0  0  0  0  0  0  0  0  0  0  0  0
   27.8693   38.1075   66.6502 H   0  0  0  0  0  0  0  0  0  0  0  0
   28.5075   38.0515   68.3116 H   0  0  0  0  0  0  0  0  0  0  0  0
   29.3515   36.1480   66.9537 H   0  0  0  0  0  0  0  0  0  0  0  0
   30.6773   37.2232   67.4579 H   0  0  0  0  0  0  0  0  0  0  0  0
   30.7036   34.1306   64.6316 H   0  0  0  0  0  0  0  0  0  0  0  0
   29.2002   35.0618   64.9417 H   0  0  0  0  0  0  0  0  0  0  0  0
   29.1264   35.9215   62.7505 H   0  0  0  0  0  0  0  0  0  0  0  0
   30.0572   34.4395   62.3795 H   0  0  0  0  0  0  0  0  0  0  0  0
   31.0090   34.4922   60.5902 H   0  0  0  0  0  0  0  0  0  0  0  0
   31.8376   34.8628   58.3027 H   0  0  0  0  0  0  0  0  0  0  0  0
   32.9715   36.9704   57.7286 H   0  0  0  0  0  0  0  0  0  0  0  0
   33.2811   38.7123   59.4393 H   0  0  0  0  0  0  0  0  0  0  0  0
   32.4559   38.3514   61.7298 H   0  0  0  0  0  0  0  0  0  0  0  0
  1  2  2  0  0  0  0
  2 13  1  0  0  0  0
  2  3  1  0  0  0  0
  3  4  1  1  0  0  0
  3  5  1  0  0  0  0
  3 11  1  0  0  0  0
  5 10  1  0  0  0  0
  5  6  1  0  0  0  0
  6  7  1  0  0  0  0
  6 20  1  0  0  0  0
  6 21  1  0  0  0  0
  7  8  1  0  0  0  0
  7 22  1  0  0  0  0
  7 23  1  0  0  0  0
  8  9  1  0  0  0  0
  8 24  1  0  0  0  0
  8 25  1  0  0  0  0
  9 10  1  0  0  0  0
  9 26  1  0  0  0  0
  9 27  1  0  0  0  0
 10 28  1  0  0  0  0
 10 29  1  0  0  0  0
 11 12  1  0  0  0  0
 11 30  1  0  0  0  0
 11 31  1  0  0  0  0
 12 13  1  0  0  0  0
 12 32  1  0  0  0  0
 12 33  1  0  0  0  0
 13 14  1  0  0  0  0
 14 19  2  0  0  0  0
 14 15  1  0  0  0  0
 15 16  2  0  0  0  0
 15 34  1  0  0  0  0
 16 17  1  0  0  0  0
 16 35  1  0  0  0  0
 17 18  2  0  0  0  0
 17 36  1  0  0  0  0
 18 19  1  0  0  0  0
 18 37  1  0  0  0  0
 19 38  1  0  0  0  0
M  END
$$$$
