ZINC000000016688      none
 OpenBabel11202420153D

 31 34  0  0  0  0  0  0  0  0999 V2000
   33.1039   34.2926   53.3703 C   0  0  0  0  0  0  0  0  0  0  0  0
   34.2123   34.7394   54.1539 O   0  0  0  0  0  0  0  0  0  0  0  0
   34.0389   35.8789   54.8752 C   0  0  0  0  0  0  0  0  0  0  0  0
   34.3491   37.1073   54.3219 C   0  0  0  0  0  0  0  0  0  0  0  0
   34.1659   38.2668   55.0623 C   0  0  0  0  0  0  0  0  0  0  0  0
   33.6908   38.2183   56.3382 C   0  0  0  0  0  0  0  0  0  0  0  0
   33.3697   36.9805   56.9330 C   0  0  0  0  0  0  0  0  0  0  0  0
   33.5520   35.8170   56.1809 C   0  0  0  0  0  0  0  0  0  0  0  0
   33.0617   34.4751   57.2123 S   0  0  0  0  0  0  0  0  0  0  0  0
   32.6388   35.4074   58.5657 N   0  0  0  0  0  0  0  0  0  0  0  0
   32.1536   34.9851   59.7889 C   0  0  0  0  0  0  0  0  0  0  0  0
   31.9514   33.6280   60.0362 C   0  0  0  0  0  0  0  0  0  0  0  0
   31.4670   33.2235   61.2600 C   0  0  0  0  0  0  0  0  0  0  0  0
   31.1770   34.1519   62.2508 C   0  0  0  0  0  0  0  0  0  0  0  0
   31.3691   35.4872   62.0288 C   0  0  0  0  0  0  0  0  0  0  0  0
   31.8587   35.9168   60.7952 C   0  0  0  0  0  0  0  0  0  0  0  0
   32.0807   37.3439   60.5095 C   0  0  0  0  0  0  0  0  0  0  0  0
   31.8408   38.1990   61.3505 O   0  0  0  0  0  0  0  0  0  0  0  0
   32.5724   37.6920   59.2535 C   0  0  0  0  0  0  0  0  0  0  0  0
   32.8489   36.7135   58.2857 C   0  0  0  0  0  0  0  0  0  0  0  0
   33.3753   33.3762   52.8463 H   0  0  0  0  0  0  0  0  0  0  0  0
   32.8389   35.0614   52.6443 H   0  0  0  0  0  0  0  0  0  0  0  0
   32.2521   34.0997   54.0224 H   0  0  0  0  0  0  0  0  0  0  0  0
   34.7306   37.1648   53.3130 H   0  0  0  0  0  0  0  0  0  0  0  0
   34.4074   39.2226   54.6212 H   0  0  0  0  0  0  0  0  0  0  0  0
   33.5596   39.1329   56.8974 H   0  0  0  0  0  0  0  0  0  0  0  0
   32.1731   32.8980   59.2718 H   0  0  0  0  0  0  0  0  0  0  0  0
   31.3105   32.1722   61.4512 H   0  0  0  0  0  0  0  0  0  0  0  0
   30.7975   33.8167   63.2048 H   0  0  0  0  0  0  0  0  0  0  0  0
   31.1425   36.2049   62.8034 H   0  0  0  0  0  0  0  0  0  0  0  0
   32.7436   38.7325   59.0201 H   0  0  0  0  0  0  0  0  0  0  0  0
  1  2  1  0  0  0  0
  1 21  1  0  0  0  0
  1 22  1  0  0  0  0
  1 23  1  0  0  0  0
  2  3  1  0  0  0  0
  3  8  2  0  0  0  0
  3  4  1  0  0  0  0
  4  5  2  0  0  0  0
  4 24  1  0  0  0  0
  5  6  1  0  0  0  0
  5 25  1  0  0  0  0
  6  7  2  0  0  0  0
  6 26  1  0  0  0  0
  7 20  1  0  0  0  0
  7  8  1  0  0  0  0
  8  9  1  0  0  0  0
  9 10  1  0  0  0  0
 10 20  1  0  0  0  0
 10 11  1  0  0  0  0
 11 16  2  0  0  0  0
 11 12  1  0  0  0  0
 12 13  2  0  0  0  0
 12 27  1  0  0  0  0
 13 14  1  0  0  0  0
 13 28  1  0  0  0  0
 14 15  2  0  0  0  0
 14 29  1  0  0  0  0
 15 16  1  0  0  0  0
 15 30  1  0  0  0  0
 16 17  1  0  0  0  0
 17 18  2  0  0  0  0
 17 19  1  0  0  0  0
 19 20  2  0  0  0  0
 19 31  1  0  0  0  0
M  END
$$$$
