ZINC000000009969      none
 OpenBabel11202420153D

 38 40  0  0  0  0  0  0  0  0999 V2000
   30.6134   33.9263   59.0956 C   0  0  0  0  0  0  0  0  0  0  0  0
   32.2492   34.6420   59.4160 S   0  0  0  0  0  0  0  0  0  0  0  0
   33.2187   33.6161   59.5807 O   0  0  0  0  0  0  0  0  0  0  0  0
   32.4889   35.7446   58.5524 O   0  0  0  0  0  0  0  0  0  0  0  0
   32.1064   35.3661   61.0160 C   0  0  0  0  0  0  0  0  0  0  0  0
   31.7020   36.6841   61.1412 C   0  0  0  0  0  0  0  0  0  0  0  0
   31.5830   37.2571   62.3891 C   0  0  0  0  0  0  0  0  0  0  0  0
   31.8834   36.5052   63.5318 C   0  0  0  0  0  0  0  0  0  0  0  0
   31.7659   37.1088   64.8645 C   0  0  0  0  0  0  0  0  0  0  0  0
   30.9464   36.6641   65.8499 C   0  0  0  0  0  0  0  0  0  0  0  0
   30.0458   35.4945   65.7181 C   0  0  0  0  0  0  0  0  0  0  0  0
   30.1932   34.3991   66.5679 C   0  0  0  0  0  0  0  0  0  0  0  0
   29.3475   33.3127   66.4444 C   0  0  0  0  0  0  0  0  0  0  0  0
   29.4856   32.2530   67.2710 F   0  0  0  0  0  0  0  0  0  0  0  0
   28.3617   33.3067   65.4711 C   0  0  0  0  0  0  0  0  0  0  0  0
   28.2151   34.3903   64.6208 C   0  0  0  0  0  0  0  0  0  0  0  0
   27.2519   34.3787   63.6735 F   0  0  0  0  0  0  0  0  0  0  0  0
   29.0522   35.4837   64.7401 C   0  0  0  0  0  0  0  0  0  0  0  0
   31.0623   37.4763   67.0563 C   0  0  0  0  0  0  0  0  0  0  0  0
   30.4523   37.3096   68.0923 O   0  0  0  0  0  0  0  0  0  0  0  0
   32.0742   38.5667   66.7830 C   0  0  0  0  0  0  0  0  0  0  0  0
   32.5336   38.3180   65.3367 C   0  0  0  0  0  0  0  0  0  0  0  0
   32.2970   35.1742   63.3955 C   0  0  0  0  0  0  0  0  0  0  0  0
   32.4050   34.6154   62.1402 C   0  0  0  0  0  0  0  0  0  0  0  0
   30.3859   33.1831   59.8598 H   0  0  0  0  0  0  0  0  0  0  0  0
   30.6106   33.4513   58.1145 H   0  0  0  0  0  0  0  0  0  0  0  0
   29.8608   34.7144   59.1198 H   0  0  0  0  0  0  0  0  0  0  0  0
   31.4754   37.2640   60.2587 H   0  0  0  0  0  0  0  0  0  0  0  0
   31.2637   38.2844   62.4852 H   0  0  0  0  0  0  0  0  0  0  0  0
   30.9643   34.4010   67.3242 H   0  0  0  0  0  0  0  0  0  0  0  0
   27.7053   32.4545   65.3752 H   0  0  0  0  0  0  0  0  0  0  0  0
   28.9367   36.3283   64.0771 H   0  0  0  0  0  0  0  0  0  0  0  0
   32.9171   38.4832   67.4691 H   0  0  0  0  0  0  0  0  0  0  0  0
   31.6100   39.5490   66.8706 H   0  0  0  0  0  0  0  0  0  0  0  0
   33.6046   38.1170   65.3114 H   0  0  0  0  0  0  0  0  0  0  0  0
   32.2984   39.1802   64.7126 H   0  0  0  0  0  0  0  0  0  0  0  0
   32.5309   34.5874   64.2715 H   0  0  0  0  0  0  0  0  0  0  0  0
   32.7238   33.5891   62.0333 H   0  0  0  0  0  0  0  0  0  0  0  0
  1  2  1  0  0  0  0
  1 25  1  0  0  0  0
  1 26  1  0  0  0  0
  1 27  1  0  0  0  0
  2  3  2  0  0  0  0
  2  4  2  0  0  0  0
  2  5  1  0  0  0  0
  5 24  2  0  0  0  0
  5  6  1  0  0  0  0
  6  7  2  0  0  0  0
  6 28  1  0  0  0  0
  7  8  1  0  0  0  0
  7 29  1  0  0  0  0
  8  9  1  0  0  0  0
  8 23  2  0  0  0  0
  9 22  1  0  0  0  0
  9 10  2  0  0  0  0
 10 11  1  0  0  0  0
 10 19  1  0  0  0  0
 11 18  2  0  0  0  0
 11 12  1  0  0  0  0
 12 13  2  0  0  0  0
 12 30  1  0  0  0  0
 13 14  1  0  0  0  0
 13 15  1  0  0  0  0
 15 16  2  0  0  0  0
 15 31  1  0  0  0  0
 16 17  1  0  0  0  0
 16 18  1  0  0  0  0
 18 32  1  0  0  0  0
 19 20  2  0  0  0  0
 19 21  1  0  0  0  0
 21 22  1  0  0  0  0
 21 33  1  0  0  0  0
 21 34  1  0  0  0  0
 22 35  1  0  0  0  0
 22 36  1  0  0  0  0
 23 24  1  0  0  0  0
 23 37  1  0  0  0  0
 24 38  1  0  0  0  0
M  END
$$$$
