ZINC000000050307      none
 OpenBabel11202420153D

 27 28  0  0  0  0  0  0  0  0999 V2000
   35.7528   40.6512   51.7038 C   0  0  0  0  0  0  0  0  0  0  0  0
   35.3940   39.5188   52.4983 O   0  0  0  0  0  0  0  0  0  0  0  0
   34.8395   39.7669   53.7034 C   0  0  0  0  0  0  0  0  0  0  0  0
   34.6658   40.9144   54.0686 O   0  0  0  0  0  0  0  0  0  0  0  0
   34.4474   38.6566   54.5703 C   0  0  0  0  0  0  0  0  0  0  0  0
   34.5894   37.3151   54.2788 C   0  0  0  0  0  0  0  0  0  0  0  0
   34.0915   36.6068   55.3730 C   0  0  0  0  0  0  0  0  0  0  0  0
   33.6621   37.5417   56.2959 C   0  0  0  0  0  0  0  0  0  0  0  0
   33.0788   37.2529   57.5715 C   0  0  0  0  0  0  0  0  0  0  0  0
   32.6006   37.0160   58.6172 C   0  0  0  0  0  0  0  0  0  0  0  0
   32.0174   36.7272   59.8927 C   0  0  0  0  0  0  0  0  0  0  0  0
   31.8337   35.4012   60.2974 C   0  0  0  0  0  0  0  0  0  0  0  0
   31.2754   35.1313   61.5290 C   0  0  0  0  0  0  0  0  0  0  0  0
   30.8882   36.1684   62.3597 C   0  0  0  0  0  0  0  0  0  0  0  0
   31.0618   37.4832   61.9641 C   0  0  0  0  0  0  0  0  0  0  0  0
   31.6232   37.7695   60.7376 C   0  0  0  0  0  0  0  0  0  0  0  0
   33.8856   38.7691   55.7927 O   0  0  0  0  0  0  0  0  0  0  0  0
   36.1864   40.3121   50.7630 H   0  0  0  0  0  0  0  0  0  0  0  0
   34.8640   41.2482   51.4999 H   0  0  0  0  0  0  0  0  0  0  0  0
   36.4816   41.2567   52.2425 H   0  0  0  0  0  0  0  0  0  0  0  0
   35.0102   36.8939   53.3775 H   0  0  0  0  0  0  0  0  0  0  0  0
   34.0499   35.5328   55.4787 H   0  0  0  0  0  0  0  0  0  0  0  0
   32.1320   34.5909   59.6489 H   0  0  0  0  0  0  0  0  0  0  0  0
   31.1364   34.1077   61.8447 H   0  0  0  0  0  0  0  0  0  0  0  0
   30.4480   35.9505   63.3215 H   0  0  0  0  0  0  0  0  0  0  0  0
   30.7565   38.2871   62.6175 H   0  0  0  0  0  0  0  0  0  0  0  0
   31.7576   38.7960   60.4300 H   0  0  0  0  0  0  0  0  0  0  0  0
  1  2  1  0  0  0  0
  1 18  1  0  0  0  0
  1 19  1  0  0  0  0
  1 20  1  0  0  0  0
  2  3  1  0  0  0  0
  3  4  2  0  0  0  0
  3  5  1  0  0  0  0
  5 17  1  0  0  0  0
  5  6  2  0  0  0  0
  6  7  1  0  0  0  0
  6 21  1  0  0  0  0
  7  8  2  0  0  0  0
  7 22  1  0  0  0  0
  8  9  1  0  0  0  0
  8 17  1  0  0  0  0
  9 10  3  0  0  0  0
 10 11  1  0  0  0  0
 11 16  2  0  0  0  0
 11 12  1  0  0  0  0
 12 13  2  0  0  0  0
 12 23  1  0  0  0  0
 13 14  1  0  0  0  0
 13 24  1  0  0  0  0
 14 15  2  0  0  0  0
 14 25  1  0  0  0  0
 15 16  1  0  0  0  0
 15 26  1  0  0  0  0
 16 27  1  0  0  0  0
M  END
$$$$
