ZINC000000036681      none
 OpenBabel11202420153D

 26 26  0  0  0  0  0  0  0  0999 V2000
   30.6447   38.8820   62.7553 C   0  0  0  0  0  0  0  0  0  0  0  0
   30.9783   38.6357   61.3637 O   0  0  0  0  0  0  0  0  0  0  0  0
   31.9803   37.7681   61.1189 C   0  0  0  0  0  0  0  0  0  0  0  0
   32.5594   37.2320   62.0433 O   0  0  0  0  0  0  0  0  0  0  0  0
   32.3731   37.4699   59.7326 C   0  0  0  0  0  0  0  0  0  0  0  0
   32.2968   36.1597   59.2474 C   0  0  0  0  0  0  0  0  0  0  0  0
   32.6609   35.8837   57.9612 C   0  0  0  0  0  0  0  0  0  0  0  0
   33.1104   36.9015   57.1228 C   0  0  0  0  0  0  0  0  0  0  0  0
   33.4802   36.6081   55.8108 N   0  0  0  0  0  0  0  0  0  0  0  0
   33.9153   37.5908   54.9975 C   0  0  0  0  0  0  0  0  0  0  0  0
   34.3151   37.2736   53.5796 C   0  0  0  0  0  0  0  0  0  0  0  0
   33.9851   38.7302   55.4068 O   0  0  0  0  0  0  0  0  0  0  0  0
   33.1919   38.2071   57.5888 C   0  0  0  0  0  0  0  0  0  0  0  0
   32.8254   38.4989   58.8915 C   0  0  0  0  0  0  0  0  0  0  0  0
   32.8976   39.7731   59.3509 O   0  0  0  0  0  0  0  0  0  0  0  0
   31.5152   39.2867   63.2715 H   0  0  0  0  0  0  0  0  0  0  0  0
   29.8241   39.5972   62.8112 H   0  0  0  0  0  0  0  0  0  0  0  0
   30.3443   37.9467   63.2278 H   0  0  0  0  0  0  0  0  0  0  0  0
   31.9491   35.3656   59.8916 H   0  0  0  0  0  0  0  0  0  0  0  0
   32.6000   34.8709   57.5913 H   0  0  0  0  0  0  0  0  0  0  0  0
   33.4243   35.6967   55.4834 H   0  0  0  0  0  0  0  0  0  0  0  0
   33.4466   37.3676   52.9275 H   0  0  0  0  0  0  0  0  0  0  0  0
   35.0893   37.9692   53.2561 H   0  0  0  0  0  0  0  0  0  0  0  0
   34.6984   36.2545   53.5294 H   0  0  0  0  0  0  0  0  0  0  0  0
   33.5405   38.9936   56.9359 H   0  0  0  0  0  0  0  0  0  0  0  0
   32.6167   39.8762   60.2705 H   0  0  0  0  0  0  0  0  0  0  0  0
  1  2  1  0  0  0  0
  1 16  1  0  0  0  0
  1 17  1  0  0  0  0
  1 18  1  0  0  0  0
  2  3  1  0  0  0  0
  3  4  2  0  0  0  0
  3  5  1  0  0  0  0
  5 14  2  0  0  0  0
  5  6  1  0  0  0  0
  6  7  2  0  0  0  0
  6 19  1  0  0  0  0
  7  8  1  0  0  0  0
  7 20  1  0  0  0  0
  8  9  1  0  0  0  0
  8 13  2  0  0  0  0
  9 10  1  0  0  0  0
  9 21  1  0  0  0  0
 10 11  1  0  0  0  0
 10 12  2  0  0  0  0
 11 22  1  0  0  0  0
 11 23  1  0  0  0  0
 11 24  1  0  0  0  0
 13 14  1  0  0  0  0
 13 25  1  0  0  0  0
 14 15  1  0  0  0  0
 15 26  1  0  0  0  0
M  END
$$$$
