ZINC000000020687      none
 OpenBabel11202420153D

 31 32  0  0  0  0  0  0  0  0999 V2000
   33.4285   39.7471   56.6013 C   0  0  0  0  0  0  0  0  0  0  0  0
   33.1436   38.5631   57.4890 C   0  0  0  0  0  0  0  0  0  0  0  0
   33.0221   37.2877   56.9543 C   0  0  0  0  0  0  0  0  0  0  0  0
   32.7604   36.2243   57.7952 C   0  0  0  0  0  0  0  0  0  0  0  0
   32.6280   34.8372   57.2212 C   0  0  0  0  0  0  0  0  0  0  0  0
   32.6304   36.4060   59.0954 N   0  0  0  0  0  0  0  0  0  0  0  0
   32.7338   37.6067   59.6423 C   0  0  0  0  0  0  0  0  0  0  0  0
   32.5834   37.7533   61.0204 N   0  0  0  0  0  0  0  0  0  0  0  0
   32.3340   36.6750   61.7896 C   0  0  0  0  0  0  0  0  0  0  0  0
   32.2404   35.5772   61.2826 O   0  0  0  0  0  0  0  0  0  0  0  0
   32.1712   36.8334   63.2793 C   0  0  0  0  0  0  0  0  0  0  0  0
   31.0155   37.7581   63.5630 C   0  0  0  0  0  0  0  0  0  0  0  0
   30.6310   38.0965   64.8490 C   0  0  0  0  0  0  0  0  0  0  0  0
   29.5892   38.9260   64.9242 C   0  0  0  0  0  0  0  0  0  0  0  0
   29.0348   39.3249   63.3034 S   0  0  0  0  0  0  0  0  0  0  0  0
   30.2893   38.3169   62.5938 C   0  0  0  0  0  0  0  0  0  0  0  0
   32.9965   38.7226   58.8557 C   0  0  0  0  0  0  0  0  0  0  0  0
   34.5062   39.8840   56.5131 H   0  0  0  0  0  0  0  0  0  0  0  0
   33.0026   39.5713   55.6135 H   0  0  0  0  0  0  0  0  0  0  0  0
   32.9827   40.6421   57.0352 H   0  0  0  0  0  0  0  0  0  0  0  0
   33.1310   37.1290   55.8916 H   0  0  0  0  0  0  0  0  0  0  0  0
   33.6050   34.3542   57.2089 H   0  0  0  0  0  0  0  0  0  0  0  0
   31.9418   34.2538   57.8351 H   0  0  0  0  0  0  0  0  0  0  0  0
   32.2411   34.9003   56.2040 H   0  0  0  0  0  0  0  0  0  0  0  0
   32.6583   38.6313   61.4259 H   0  0  0  0  0  0  0  0  0  0  0  0
   31.9762   35.8598   63.7290 H   0  0  0  0  0  0  0  0  0  0  0  0
   33.0842   37.2526   63.7021 H   0  0  0  0  0  0  0  0  0  0  0  0
   31.1365   37.7178   65.7250 H   0  0  0  0  0  0  0  0  0  0  0  0
   29.1532   39.2965   65.8401 H   0  0  0  0  0  0  0  0  0  0  0  0
   30.4462   38.1710   61.5352 H   0  0  0  0  0  0  0  0  0  0  0  0
   33.0851   39.7007   59.3052 H   0  0  0  0  0  0  0  0  0  0  0  0
  1  2  1  0  0  0  0
  1 18  1  0  0  0  0
  1 19  1  0  0  0  0
  1 20  1  0  0  0  0
  2 17  2  0  0  0  0
  2  3  1  0  0  0  0
  3  4  2  0  0  0  0
  3 21  1  0  0  0  0
  4  5  1  0  0  0  0
  4  6  1  0  0  0  0
  5 22  1  0  0  0  0
  5 23  1  0  0  0  0
  5 24  1  0  0  0  0
  6  7  2  0  0  0  0
  7  8  1  0  0  0  0
  7 17  1  0  0  0  0
  8  9  1  0  0  0  0
  8 25  1  0  0  0  0
  9 10  2  0  0  0  0
  9 11  1  0  0  0  0
 11 12  1  0  0  0  0
 11 26  1  0  0  0  0
 11 27  1  0  0  0  0
 12 16  2  0  0  0  0
 12 13  1  0  0  0  0
 13 14  2  0  0  0  0
 13 28  1  0  0  0  0
 14 15  1  0  0  0  0
 14 29  1  0  0  0  0
 15 16  1  0  0  0  0
 16 30  1  0  0  0  0
 17 31  1  0  0  0  0
M  END
$$$$
