ZINC000000006859      none
 OpenBabel11202420153D

 32 34  0  0  1  0  0  0  0  0999 V2000
   33.0057   36.9175   64.5877 C   0  0  0  0  0  0  0  0  0  0  0  0
   31.6744   36.1702   64.4878 C   0  0  2  0  0  0  0  0  0  0  0  0
   31.4257   35.7399   65.4579 H   0  0  0  0  0  0  0  0  0  0  0  0
   31.7917   35.0695   63.4652 C   0  0  0  0  0  0  0  0  0  0  0  0
   32.5862   35.0807   62.3780 C   0  0  0  0  0  0  0  0  0  0  0  0
   32.3851   33.8929   61.7281 N   0  0  0  0  0  0  0  0  0  0  0  0
   32.8164   33.6050   60.9084 H   0  0  0  0  0  0  0  0  0  0  0  0
   31.4741   33.1966   62.4416 C   0  0  0  0  0  0  0  0  0  0  0  0
   31.1276   33.9043   63.4818 N   0  0  0  0  0  0  0  0  0  0  0  0
   30.5732   37.1443   64.0644 C   0  0  2  0  0  0  0  0  0  0  0  0
   30.7018   38.1020   64.5688 H   0  0  0  0  0  0  0  0  0  0  0  0
   29.1835   36.5533   64.3835 C   0  0  0  0  0  0  0  0  0  0  0  0
   28.8147   35.8431   63.0637 C   0  0  0  0  0  0  0  0  0  0  0  0
   29.5777   36.5856   61.9876 C   0  0  0  0  0  0  0  0  0  0  0  0
   29.4015   36.6056   60.6141 C   0  0  0  0  0  0  0  0  0  0  0  0
   30.2320   37.3695   59.8179 C   0  0  0  0  0  0  0  0  0  0  0  0
   31.2426   38.1174   60.3930 C   0  0  0  0  0  0  0  0  0  0  0  0
   31.4195   38.0992   61.7625 C   0  0  0  0  0  0  0  0  0  0  0  0
   30.5877   37.3337   62.5626 C   0  0  0  0  0  0  0  0  0  0  0  0
   33.7902   36.2235   64.8893 H   0  0  0  0  0  0  0  0  0  0  0  0
   33.2544   37.3478   63.6175 H   0  0  0  0  0  0  0  0  0  0  0  0
   32.9208   37.7137   65.3272 H   0  0  0  0  0  0  0  0  0  0  0  0
   33.2534   35.8747   62.0764 H   0  0  0  0  0  0  0  0  0  0  0  0
   31.0979   32.2148   62.1944 H   0  0  0  0  0  0  0  0  0  0  0  0
   28.4689   37.3443   64.6106 H   0  0  0  0  0  0  0  0  0  0  0  0
   29.2423   35.8389   65.2046 H   0  0  0  0  0  0  0  0  0  0  0  0
   27.7420   35.9132   62.8835 H   0  0  0  0  0  0  0  0  0  0  0  0
   29.1260   34.7990   63.0961 H   0  0  0  0  0  0  0  0  0  0  0  0
   28.6123   36.0215   60.1640 H   0  0  0  0  0  0  0  0  0  0  0  0
   30.0926   37.3824   58.7471 H   0  0  0  0  0  0  0  0  0  0  0  0
   31.8928   38.7157   59.7719 H   0  0  0  0  0  0  0  0  0  0  0  0
   32.2120   38.6802   62.2107 H   0  0  0  0  0  0  0  0  0  0  0  0
  1  2  1  0  0  0  0
  1 20  1  0  0  0  0
  1 21  1  0  0  0  0
  1 22  1  0  0  0  0
  2  3  1  1  0  0  0
  2  4  1  0  0  0  0
  2 10  1  0  0  0  0
  4  9  1  0  0  0  0
  4  5  2  0  0  0  0
  5  6  1  0  0  0  0
  5 23  1  0  0  0  0
  6  7  1  0  0  0  0
  6  8  1  0  0  0  0
  8  9  2  0  0  0  0
  8 24  1  0  0  0  0
 10 11  1  1  0  0  0
 10 19  1  0  0  0  0
 10 12  1  0  0  0  0
 12 13  1  0  0  0  0
 12 25  1  0  0  0  0
 12 26  1  0  0  0  0
 13 14  1  0  0  0  0
 13 27  1  0  0  0  0
 13 28  1  0  0  0  0
 14 19  2  0  0  0  0
 14 15  1  0  0  0  0
 15 16  2  0  0  0  0
 15 29  1  0  0  0  0
 16 17  1  0  0  0  0
 16 30  1  0  0  0  0
 17 18  2  0  0  0  0
 17 31  1  0  0  0  0
 18 19  1  0  0  0  0
 18 32  1  0  0  0  0
M  END
$$$$
