ZINC000000035235      none
 OpenBabel11202420153D

 29 30  0  0  0  0  0  0  0  0999 V2000
   32.0762   36.6512   60.5735 O   0  0  0  0  0  0  0  0  0  0  0  0
   32.0769   37.7817   61.0242 C   0  0  0  0  0  0  0  0  0  0  0  0
   31.6484   38.0199   62.4025 C   0  0  0  0  0  0  0  0  0  0  0  0
   30.5979   38.8290   62.6518 C   0  0  0  0  0  0  0  0  0  0  0  0
   30.1668   39.0686   64.0378 C   0  0  0  0  0  0  0  0  0  0  0  0
   31.0463   38.8274   65.0986 C   0  0  0  0  0  0  0  0  0  0  0  0
   30.6379   39.0585   66.3941 C   0  0  0  0  0  0  0  0  0  0  0  0
   29.3547   39.5191   66.6483 C   0  0  0  0  0  0  0  0  0  0  0  0
   28.9589   39.7392   67.9210 F   0  0  0  0  0  0  0  0  0  0  0  0
   28.4762   39.7551   65.6014 C   0  0  0  0  0  0  0  0  0  0  0  0
   28.8737   39.5331   64.3010 C   0  0  0  0  0  0  0  0  0  0  0  0
   32.4724   38.8142   60.2534 N   0  0  0  0  0  0  0  0  0  0  0  0
   32.8803   38.5873   58.9412 C   0  0  0  0  0  0  0  0  0  0  0  0
   33.2867   39.6573   58.1512 C   0  0  0  0  0  0  0  0  0  0  0  0
   33.6936   39.4173   56.8509 C   0  0  0  0  0  0  0  0  0  0  0  0
   33.6705   38.1113   56.3800 C   0  0  0  0  0  0  0  0  0  0  0  0
   33.2554   37.0971   57.2198 C   0  0  0  0  0  0  0  0  0  0  0  0
   32.8772   37.3553   58.4571 N   0  0  0  0  0  0  0  0  0  0  0  0
   32.1730   37.5483   63.2203 H   0  0  0  0  0  0  0  0  0  0  0  0
   30.0733   39.3007   61.8340 H   0  0  0  0  0  0  0  0  0  0  0  0
   32.0445   38.4646   64.9024 H   0  0  0  0  0  0  0  0  0  0  0  0
   31.3172   38.8764   67.2139 H   0  0  0  0  0  0  0  0  0  0  0  0
   27.4781   40.1133   65.8060 H   0  0  0  0  0  0  0  0  0  0  0  0
   28.1887   39.7177   63.4867 H   0  0  0  0  0  0  0  0  0  0  0  0
   32.4730   39.7152   60.6126 H   0  0  0  0  0  0  0  0  0  0  0  0
   33.2883   40.6616   58.5486 H   0  0  0  0  0  0  0  0  0  0  0  0
   34.0180   40.2279   56.2152 H   0  0  0  0  0  0  0  0  0  0  0  0
   33.9784   37.8905   55.3686 H   0  0  0  0  0  0  0  0  0  0  0  0
   33.2398   36.0792   56.8591 H   0  0  0  0  0  0  0  0  0  0  0  0
  1  2  2  0  0  0  0
  2  3  1  0  0  0  0
  2 12  1  0  0  0  0
  3  4  2  0  0  0  0
  3 19  1  0  0  0  0
  4  5  1  0  0  0  0
  4 20  1  0  0  0  0
  5 11  2  0  0  0  0
  5  6  1  0  0  0  0
  6  7  2  0  0  0  0
  6 21  1  0  0  0  0
  7  8  1  0  0  0  0
  7 22  1  0  0  0  0
  8  9  1  0  0  0  0
  8 10  2  0  0  0  0
 10 11  1  0  0  0  0
 10 23  1  0  0  0  0
 11 24  1  0  0  0  0
 12 13  1  0  0  0  0
 12 25  1  0  0  0  0
 13 18  2  0  0  0  0
 13 14  1  0  0  0  0
 14 15  2  0  0  0  0
 14 26  1  0  0  0  0
 15 16  1  0  0  0  0
 15 27  1  0  0  0  0
 16 17  2  0  0  0  0
 16 28  1  0  0  0  0
 17 18  1  0  0  0  0
 17 29  1  0  0  0  0
M  END
$$$$
