ZINC000000042631      none
 OpenBabel11202420153D

 35 37  0  0  0  0  0  0  0  0999 V2000
   32.6545   34.5976   57.6291 C   0  0  0  0  0  0  0  0  0  0  0  0
   32.7134   35.9598   58.1650 N   0  0  0  0  0  0  0  0  0  0  0  0
   32.4250   36.3380   59.4394 C   0  0  0  0  0  0  0  0  0  0  0  0
   31.9864   35.4049   60.5386 C   0  0  0  0  0  0  0  0  0  0  0  0
   30.8251   36.0140   61.2812 C   0  0  0  0  0  0  0  0  0  0  0  0
   29.6890   35.7926   60.9173 O   0  0  0  0  0  0  0  0  0  0  0  0
   31.0679   36.8735   62.4424 C   0  0  0  0  0  0  0  0  0  0  0  0
   30.6297   38.2049   62.4373 C   0  0  0  0  0  0  0  0  0  0  0  0
   30.8518   39.0016   63.5222 C   0  0  0  0  0  0  0  0  0  0  0  0
   31.5181   38.5023   64.6387 C   0  0  0  0  0  0  0  0  0  0  0  0
   31.7321   39.3046   65.7117 O   0  0  0  0  0  0  0  0  0  0  0  0
   31.9638   37.1887   64.6596 C   0  0  0  0  0  0  0  0  0  0  0  0
   31.7462   36.3681   63.5662 C   0  0  0  0  0  0  0  0  0  0  0  0
   32.1799   35.0833   63.5804 O   0  0  0  0  0  0  0  0  0  0  0  0
   32.5774   37.6236   59.5697 N   0  0  0  0  0  0  0  0  0  0  0  0
   32.9825   38.1572   58.3886 C   0  0  0  0  0  0  0  0  0  0  0  0
   33.2903   39.4553   57.9728 C   0  0  0  0  0  0  0  0  0  0  0  0
   33.6738   39.6834   56.6816 C   0  0  0  0  0  0  0  0  0  0  0  0
   33.7626   38.6371   55.7742 C   0  0  0  0  0  0  0  0  0  0  0  0
   33.4641   37.3485   56.1623 C   0  0  0  0  0  0  0  0  0  0  0  0
   33.0722   37.0975   57.4702 C   0  0  0  0  0  0  0  0  0  0  0  0
   31.6582   34.4066   57.2304 H   0  0  0  0  0  0  0  0  0  0  0  0
   33.3914   34.4880   56.8334 H   0  0  0  0  0  0  0  0  0  0  0  0
   32.8703   33.8845   58.4247 H   0  0  0  0  0  0  0  0  0  0  0  0
   32.8141   35.2424   61.2290 H   0  0  0  0  0  0  0  0  0  0  0  0
   31.6816   34.4519   60.1062 H   0  0  0  0  0  0  0  0  0  0  0  0
   30.1115   38.5991   61.5755 H   0  0  0  0  0  0  0  0  0  0  0  0
   30.5086   40.0256   63.5154 H   0  0  0  0  0  0  0  0  0  0  0  0
   32.2015   38.8725   66.4385 H   0  0  0  0  0  0  0  0  0  0  0  0
   32.4803   36.8067   65.5277 H   0  0  0  0  0  0  0  0  0  0  0  0
   31.9771   34.5909   62.7731 H   0  0  0  0  0  0  0  0  0  0  0  0
   33.2250   40.2767   58.6708 H   0  0  0  0  0  0  0  0  0  0  0  0
   33.9106   40.6880   56.3640 H   0  0  0  0  0  0  0  0  0  0  0  0
   34.0680   38.8338   54.7571 H   0  0  0  0  0  0  0  0  0  0  0  0
   33.5345   36.5379   55.4520 H   0  0  0  0  0  0  0  0  0  0  0  0
  1  2  1  0  0  0  0
  1 22  1  0  0  0  0
  1 23  1  0  0  0  0
  1 24  1  0  0  0  0
  2 21  1  0  0  0  0
  2  3  1  0  0  0  0
  3  4  1  0  0  0  0
  3 15  2  0  0  0  0
  4  5  1  0  0  0  0
  4 25  1  0  0  0  0
  4 26  1  0  0  0  0
  5  6  2  0  0  0  0
  5  7  1  0  0  0  0
  7 13  2  0  0  0  0
  7  8  1  0  0  0  0
  8  9  2  0  0  0  0
  8 27  1  0  0  0  0
  9 10  1  0  0  0  0
  9 28  1  0  0  0  0
 10 11  1  0  0  0  0
 10 12  2  0  0  0  0
 11 29  1  0  0  0  0
 12 13  1  0  0  0  0
 12 30  1  0  0  0  0
 13 14  1  0  0  0  0
 14 31  1  0  0  0  0
 15 16  1  0  0  0  0
 16 21  2  0  0  0  0
 16 17  1  0  0  0  0
 17 18  2  0  0  0  0
 17 32  1  0  0  0  0
 18 19  1  0  0  0  0
 18 33  1  0  0  0  0
 19 20  2  0  0  0  0
 19 34  1  0  0  0  0
 20 21  1  0  0  0  0
 20 35  1  0  0  0  0
M  END
$$$$
