ZINC000000027150      none
 OpenBabel11202420153D

 33 35  0  0  1  0  0  0  0  0999 V2000
   29.5797   34.3858   63.9091 C   0  0  0  0  0  0  0  0  0  0  0  0
   29.3637   35.1187   65.2079 C   0  0  0  0  0  0  0  0  0  0  0  0
   28.4904   34.6021   66.1451 C   0  0  0  0  0  0  0  0  0  0  0  0
   28.2959   35.2815   67.3396 C   0  0  0  0  0  0  0  0  0  0  0  0
   28.9897   36.4607   67.5492 C   0  0  0  0  0  0  0  0  0  0  0  0
   29.8527   36.9218   66.5620 C   0  0  0  0  0  0  0  0  0  0  0  0
   30.5577   38.1081   66.7602 N   0  0  0  0  0  0  0  0  0  0  0  0
   30.9055   38.5017   67.9796 C   0  0  0  0  0  0  0  0  0  0  0  0
   30.6218   37.8546   68.9653 O   0  0  0  0  0  0  0  0  0  0  0  0
   31.6801   39.8011   68.0724 C   0  0  0  0  0  0  0  0  0  0  0  0
   32.2318   40.0522   66.3374 S   0  0  0  0  0  0  0  0  0  0  0  0
   30.9335   38.9645   65.6259 C   0  0  1  0  0  0  0  0  0  0  0  0
   30.0804   39.5531   65.2885 H   0  0  0  0  0  0  0  0  0  0  0  0
   31.4919   38.1376   64.4964 C   0  0  0  0  0  0  0  0  0  0  0  0
   30.8745   38.1506   63.2586 C   0  0  0  0  0  0  0  0  0  0  0  0
   29.4564   39.1194   63.0058 Cl  0  0  0  0  0  0  0  0  0  0  0  0
   31.3907   37.3954   62.2205 C   0  0  0  0  0  0  0  0  0  0  0  0
   32.5162   36.6192   62.4234 C   0  0  0  0  0  0  0  0  0  0  0  0
   33.1304   36.6018   63.6615 C   0  0  0  0  0  0  0  0  0  0  0  0
   32.6186   37.3610   64.6987 C   0  0  0  0  0  0  0  0  0  0  0  0
   33.3898   37.3386   66.2539 Cl  0  0  0  0  0  0  0  0  0  0  0  0
   30.0151   36.2424   65.4375 N   0  0  0  0  0  0  0  0  0  0  0  0
   28.8611   34.7380   63.1691 H   0  0  0  0  0  0  0  0  0  0  0  0
   29.4426   33.3162   64.0682 H   0  0  0  0  0  0  0  0  0  0  0  0
   30.5919   34.5728   63.5503 H   0  0  0  0  0  0  0  0  0  0  0  0
   27.9647   33.6791   65.9505 H   0  0  0  0  0  0  0  0  0  0  0  0
   27.6183   34.8990   68.0885 H   0  0  0  0  0  0  0  0  0  0  0  0
   28.8625   37.0147   68.4675 H   0  0  0  0  0  0  0  0  0  0  0  0
   32.5352   39.6991   68.7405 H   0  0  0  0  0  0  0  0  0  0  0  0
   31.0326   40.6163   68.3954 H   0  0  0  0  0  0  0  0  0  0  0  0
   30.9116   37.4091   61.2527 H   0  0  0  0  0  0  0  0  0  0  0  0
   32.9162   36.0263   61.6140 H   0  0  0  0  0  0  0  0  0  0  0  0
   34.0103   35.9957   63.8193 H   0  0  0  0  0  0  0  0  0  0  0  0
  1  2  1  0  0  0  0
  1 23  1  0  0  0  0
  1 24  1  0  0  0  0
  1 25  1  0  0  0  0
  2 22  2  0  0  0  0
  2  3  1  0  0  0  0
  3  4  2  0  0  0  0
  3 26  1  0  0  0  0
  4  5  1  0  0  0  0
  4 27  1  0  0  0  0
  5  6  2  0  0  0  0
  5 28  1  0  0  0  0
  6  7  1  0  0  0  0
  6 22  1  0  0  0  0
  7 12  1  0  0  0  0
  7  8  1  0  0  0  0
  8  9  2  0  0  0  0
  8 10  1  0  0  0  0
 10 11  1  0  0  0  0
 10 29  1  0  0  0  0
 10 30  1  0  0  0  0
 11 12  1  0  0  0  0
 12 13  1  6  0  0  0
 12 14  1  0  0  0  0
 14 20  2  0  0  0  0
 14 15  1  0  0  0  0
 15 16  1  0  0  0  0
 15 17  2  0  0  0  0
 17 18  1  0  0  0  0
 17 31  1  0  0  0  0
 18 19  2  0  0  0  0
 18 32  1  0  0  0  0
 19 20  1  0  0  0  0
 19 33  1  0  0  0  0
 20 21  1  0  0  0  0
M  END
$$$$
