ZINC000000000024      none
 OpenBabel11202420153D

 38 42  0  0  1  0  0  0  0  0999 V2000
   29.3955   35.0765   64.5756 O   0  0  0  0  0  0  0  0  0  0  0  0
   29.5633   35.1649   65.9919 C   0  0  2  0  0  0  0  0  0  0  0  0
   29.2967   34.2053   66.4349 H   0  0  0  0  0  0  0  0  0  0  0  0
   28.6301   36.2128   66.5189 C   0  0  0  0  0  0  0  0  0  0  0  0
   29.0596   37.3385   66.9922 C   0  0  0  0  0  0  0  0  0  0  0  0
   28.2853   38.5477   67.4738 C   0  0  0  0  0  0  0  0  0  0  0  0
   29.3592   39.6448   67.6900 C   0  0  0  0  0  0  0  0  0  0  0  0
   30.4978   39.1936   66.8146 N   0  0  2  0  0  0  0  0  0  0  0  0
   30.0853   39.4585   65.4329 C   0  0  0  0  0  0  0  0  0  0  0  0
   30.7904   38.5991   64.4244 C   0  0  0  0  0  0  0  0  0  0  0  0
   30.8282   39.0624   63.1072 C   0  0  0  0  0  0  0  0  0  0  0  0
   31.4501   38.2703   62.1572 C   0  0  0  0  0  0  0  0  0  0  0  0
   32.0204   37.0369   62.5089 C   0  0  0  0  0  0  0  0  0  0  0  0
   31.9836   36.5852   63.8174 C   0  0  0  0  0  0  0  0  0  0  0  0
   31.3620   37.3940   64.7698 C   0  0  0  0  0  0  0  0  0  0  0  0
   31.3791   36.9259   66.1945 C   0  0  2  0  0  0  0  0  0  0  0  0
   32.4053   37.0292   66.5469 H   0  0  0  0  0  0  0  0  0  0  0  0
   31.0228   35.4493   66.2913 C   0  0  1  0  0  0  0  0  0  0  0  0
   31.6398   34.8935   65.5852 H   0  0  0  0  0  0  0  0  0  0  0  0
   31.3179   34.9919   67.6125 O   0  0  0  0  0  0  0  0  0  0  0  0
   30.5147   37.7475   67.1088 C   0  0  2  0  0  0  0  0  0  0  0  0
   30.8361   37.5953   68.1392 H   0  0  0  0  0  0  0  0  0  0  0  0
   32.5473   36.4688   61.4008 O   0  0  0  0  0  0  0  0  0  0  0  0
   32.6508   37.5337   60.4329 C   0  0  0  0  0  0  0  0  0  0  0  0
   31.6279   38.4700   60.8315 O   0  0  0  0  0  0  0  0  0  0  0  0
   29.9207   34.3788   64.1600 H   0  0  0  0  0  0  0  0  0  0  0  0
   27.5669   36.0231   66.5029 H   0  0  0  0  0  0  0  0  0  0  0  0
   27.5666   38.8640   66.7177 H   0  0  0  0  0  0  0  0  0  0  0  0
   27.7754   38.3235   68.4108 H   0  0  0  0  0  0  0  0  0  0  0  0
   29.6681   39.6796   68.7347 H   0  0  0  0  0  0  0  0  0  0  0  0
   28.9867   40.6165   67.3656 H   0  0  0  0  0  0  0  0  0  0  0  0
   30.2873   40.5046   65.2025 H   0  0  0  0  0  0  0  0  0  0  0  0
   29.0123   39.2861   65.3495 H   0  0  0  0  0  0  0  0  0  0  0  0
   30.3850   40.0098   62.8378 H   0  0  0  0  0  0  0  0  0  0  0  0
   32.4181   35.6351   64.0912 H   0  0  0  0  0  0  0  0  0  0  0  0
   32.2474   35.0851   67.8625 H   0  0  0  0  0  0  0  0  0  0  0  0
   33.6350   37.9997   60.4813 H   0  0  0  0  0  0  0  0  0  0  0  0
   32.4565   37.1573   59.4285 H   0  0  0  0  0  0  0  0  0  0  0  0
  1  2  1  0  0  0  0
  1 26  1  0  0  0  0
  2  3  1  1  0  0  0
  2 18  1  0  0  0  0
  2  4  1  0  0  0  0
  4  5  2  0  0  0  0
  4 27  1  0  0  0  0
  5 21  1  0  0  0  0
  5  6  1  0  0  0  0
  6  7  1  0  0  0  0
  6 28  1  0  0  0  0
  6 29  1  0  0  0  0
  7 30  1  0  0  0  0
  7 31  1  0  0  0  0
  8  7  1  1  0  0  0
  8 21  1  0  0  0  0
  8  9  1  0  0  0  0
  9 10  1  0  0  0  0
  9 32  1  0  0  0  0
  9 33  1  0  0  0  0
 10 15  2  0  0  0  0
 10 11  1  0  0  0  0
 11 12  2  0  0  0  0
 11 34  1  0  0  0  0
 12 25  1  0  0  0  0
 12 13  1  0  0  0  0
 13 14  2  0  0  0  0
 13 23  1  0  0  0  0
 14 15  1  0  0  0  0
 14 35  1  0  0  0  0
 15 16  1  0  0  0  0
 16 17  1  1  0  0  0
 16 18  1  0  0  0  0
 16 21  1  0  0  0  0
 18 19  1  6  0  0  0
 18 20  1  0  0  0  0
 20 36  1  0  0  0  0
 21 22  1  1  0  0  0
 23 24  1  0  0  0  0
 24 25  1  0  0  0  0
 24 37  1  0  0  0  0
 24 38  1  0  0  0  0
M  END
$$$$
