ZINC000000045413      none
 OpenBabel11202420153D

 19 20  0  0  0  0  0  0  0  0999 V2000
   31.8906   32.8735   57.1925 O   0  0  0  0  0  0  0  0  0  0  0  0
   32.0629   33.9975   57.6327 C   0  0  0  0  0  0  0  0  0  0  0  0
   31.6540   34.3068   58.8646 N   0  0  0  0  0  0  0  0  0  0  0  0
   31.8366   35.5228   59.3510 C   0  0  0  0  0  0  0  0  0  0  0  0
   31.3648   35.8427   60.7460 C   0  0  0  0  0  0  0  0  0  0  0  0
   31.4372   34.3543   61.7611 Cl  0  0  0  0  0  0  0  0  0  0  0  0
   32.4261   37.1115   61.4634 Cl  0  0  0  0  0  0  0  0  0  0  0  0
   29.6665   36.4450   60.6828 Cl  0  0  0  0  0  0  0  0  0  0  0  0
   32.4268   36.4612   58.6328 N   0  0  0  0  0  0  0  0  0  0  0  0
   32.8551   36.1891   57.3965 C   0  0  0  0  0  0  0  0  0  0  0  0
   33.4771   37.1802   56.6244 C   0  0  0  0  0  0  0  0  0  0  0  0
   33.9003   36.8756   55.3626 C   0  0  0  0  0  0  0  0  0  0  0  0
   33.7010   35.5832   54.8603 C   0  0  0  0  0  0  0  0  0  0  0  0
   33.0925   34.6428   55.6207 C   0  0  0  0  0  0  0  0  0  0  0  0
   32.6685   34.9375   56.8779 N   0  0  0  0  0  0  0  0  0  0  0  0
   33.6240   38.1723   57.0250 H   0  0  0  0  0  0  0  0  0  0  0  0
   34.3851   37.6260   54.7556 H   0  0  0  0  0  0  0  0  0  0  0  0
   34.0335   35.3362   53.8630 H   0  0  0  0  0  0  0  0  0  0  0  0
   32.9429   33.6492   55.2246 H   0  0  0  0  0  0  0  0  0  0  0  0
  1  2  2  0  0  0  0
  2 15  1  0  0  0  0
  2  3  1  0  0  0  0
  3  4  2  0  0  0  0
  4  5  1  0  0  0  0
  4  9  1  0  0  0  0
  5  6  1  0  0  0  0
  5  7  1  0  0  0  0
  5  8  1  0  0  0  0
  9 10  2  0  0  0  0
 10 15  1  0  0  0  0
 10 11  1  0  0  0  0
 11 12  2  0  0  0  0
 11 16  1  0  0  0  0
 12 13  1  0  0  0  0
 12 17  1  0  0  0  0
 13 14  2  0  0  0  0
 13 18  1  0  0  0  0
 14 15  1  0  0  0  0
 14 19  1  0  0  0  0
M  END
$$$$
