ZINC000000038516      none
 OpenBabel11202420153D

 25 26  0  0  0  0  0  0  0  0999 V2000
   32.5713   37.2464   55.0629 O   0  0  0  0  0  0  0  0  0  0  0  0
   33.0274   36.1520   54.8068 C   0  0  0  0  0  0  0  0  0  0  0  0
   33.1667   35.2346   55.7843 N   0  0  0  0  0  0  0  0  0  0  0  0
   32.7847   35.5448   57.0954 C   0  0  0  0  0  0  0  0  0  0  0  0
   32.8596   36.8540   57.5505 C   0  0  0  0  0  0  0  0  0  0  0  0
   32.4816   37.1572   58.8442 C   0  0  0  0  0  0  0  0  0  0  0  0
   32.5611   38.5534   59.3291 N   0  0  0  0  0  0  0  0  0  0  0  0
   32.9594   39.4338   58.5877 O   0  0  0  0  0  0  0  0  0  0  0  0
   32.2282   38.8219   60.4695 O   0  0  0  0  0  0  0  0  0  0  0  0
   32.0289   36.1586   59.6868 C   0  0  0  0  0  0  0  0  0  0  0  0
   31.9521   34.8530   59.2380 C   0  0  0  0  0  0  0  0  0  0  0  0
   32.3287   34.5422   57.9441 C   0  0  0  0  0  0  0  0  0  0  0  0
   32.2542   33.2665   57.5056 F   0  0  0  0  0  0  0  0  0  0  0  0
   33.4384   35.8183   53.3958 C   0  0  0  0  0  0  0  0  0  0  0  0
   32.3866   35.9801   52.2966 C   0  0  0  0  0  0  0  0  0  0  0  0
   32.8104   34.5811   52.7510 C   0  0  0  0  0  0  0  0  0  0  0  0
   33.5314   34.3594   55.5795 H   0  0  0  0  0  0  0  0  0  0  0  0
   33.2088   37.6358   56.8923 H   0  0  0  0  0  0  0  0  0  0  0  0
   31.7343   36.3991   60.6976 H   0  0  0  0  0  0  0  0  0  0  0  0
   31.5973   34.0755   59.8984 H   0  0  0  0  0  0  0  0  0  0  0  0
   34.4729   36.0486   53.1406 H   0  0  0  0  0  0  0  0  0  0  0  0
   31.3974   36.3279   52.5940 H   0  0  0  0  0  0  0  0  0  0  0  0
   32.7290   36.3164   51.3181 H   0  0  0  0  0  0  0  0  0  0  0  0
   33.4315   33.9977   52.0713 H   0  0  0  0  0  0  0  0  0  0  0  0
   32.0999   34.0086   53.3474 H   0  0  0  0  0  0  0  0  0  0  0  0
  1  2  2  0  0  0  0
  2  3  1  0  0  0  0
  2 14  1  0  0  0  0
  3  4  1  0  0  0  0
  3 17  1  0  0  0  0
  4 12  2  0  0  0  0
  4  5  1  0  0  0  0
  5  6  2  0  0  0  0
  5 18  1  0  0  0  0
  6  7  1  0  0  0  0
  6 10  1  0  0  0  0
  7  8  2  0  0  0  0
  7  9  2  0  0  0  0
 10 11  2  0  0  0  0
 10 19  1  0  0  0  0
 11 12  1  0  0  0  0
 11 20  1  0  0  0  0
 12 13  1  0  0  0  0
 14 16  1  0  0  0  0
 14 15  1  0  0  0  0
 14 21  1  0  0  0  0
 15 16  1  0  0  0  0
 15 22  1  0  0  0  0
 15 23  1  0  0  0  0
 16 24  1  0  0  0  0
 16 25  1  0  0  0  0
M  END
$$$$
