ZINC000000000882      none
 OpenBabel11202420153D

 15 16  0  0  0  0  0  0  0  0999 V2000
   33.2316   40.8188   59.1302 N   0  0  0  0  0  0  0  0  0  0  0  0
   33.1609   39.6254   58.4331 C   0  0  0  0  0  0  0  0  0  0  0  0
   33.4924   39.5683   57.1473 N   0  0  0  0  0  0  0  0  0  0  0  0
   33.4285   38.4340   56.4743 C   0  0  0  0  0  0  0  0  0  0  0  0
   33.0379   37.3052   57.0276 N   0  0  0  0  0  0  0  0  0  0  0  0
   32.6867   37.2648   58.3087 C   0  0  0  0  0  0  0  0  0  0  0  0
   32.2473   36.2846   59.1623 N   0  0  0  0  0  0  0  0  0  0  0  0
   32.1024   35.3518   58.9392 H   0  0  0  0  0  0  0  0  0  0  0  0
   32.0459   36.8634   60.3800 C   0  0  0  0  0  0  0  0  0  0  0  0
   32.3340   38.1312   60.3228 N   0  0  0  0  0  0  0  0  0  0  0  0
   32.7375   38.4458   59.0683 C   0  0  0  0  0  0  0  0  0  0  0  0
   33.5257   41.6265   58.6806 H   0  0  0  0  0  0  0  0  0  0  0  0
   32.9870   40.8477   60.0685 H   0  0  0  0  0  0  0  0  0  0  0  0
   33.7074   38.4322   55.4310 H   0  0  0  0  0  0  0  0  0  0  0  0
   31.6985   36.3461   61.2621 H   0  0  0  0  0  0  0  0  0  0  0  0
  1  2  1  0  0  0  0
  1 12  1  0  0  0  0
  1 13  1  0  0  0  0
  2 11  2  0  0  0  0
  2  3  1  0  0  0  0
  3  4  2  0  0  0  0
  4  5  1  0  0  0  0
  4 14  1  0  0  0  0
  5  6  2  0  0  0  0
  6 11  1  0  0  0  0
  6  7  1  0  0  0  0
  7  8  1  0  0  0  0
  7  9  1  0  0  0  0
  9 10  2  0  0  0  0
  9 15  1  0  0  0  0
 10 11  1  0  0  0  0
M  END
$$$$
