ZINC000000035469      none
 OpenBabel11202420153D

 28 30  0  0  0  0  0  0  0  0999 V2000
   32.3725   39.2099   60.4822 O   0  0  0  0  0  0  0  0  0  0  0  0
   32.7415   38.8745   59.2199 C   0  0  0  0  0  0  0  0  0  0  0  0
   33.2319   39.8547   58.3577 C   0  0  0  0  0  0  0  0  0  0  0  0
   33.6129   39.5640   57.0862 C   0  0  0  0  0  0  0  0  0  0  0  0
   33.5248   38.2508   56.5908 C   0  0  0  0  0  0  0  0  0  0  0  0
   33.9166   37.9393   55.2777 C   0  0  0  0  0  0  0  0  0  0  0  0
   33.8180   36.6565   54.8315 C   0  0  0  0  0  0  0  0  0  0  0  0
   33.3340   35.6451   55.6575 C   0  0  0  0  0  0  0  0  0  0  0  0
   32.9452   35.9121   56.9367 C   0  0  0  0  0  0  0  0  0  0  0  0
   33.0331   37.2201   57.4279 C   0  0  0  0  0  0  0  0  0  0  0  0
   32.6331   37.5501   58.7949 C   0  0  0  0  0  0  0  0  0  0  0  0
   32.1234   36.5108   59.6994 C   0  0  0  0  0  0  0  0  0  0  0  0
   32.3090   36.6172   60.9818 N   0  0  0  0  0  0  0  0  0  0  0  0
   31.8228   35.6260   61.8444 N   0  0  0  0  0  0  0  0  0  0  0  0
   31.9394   35.5880   63.2019 C   0  0  0  0  0  0  0  0  0  0  0  0
   31.3457   34.4986   63.6104 N   0  0  0  0  0  0  0  0  0  0  0  0
   30.8766   33.8521   62.6033 N   0  0  0  0  0  0  0  0  0  0  0  0
   31.1406   34.4976   61.4988 C   0  0  0  0  0  0  0  0  0  0  0  0
   32.4821   40.1484   60.6877 H   0  0  0  0  0  0  0  0  0  0  0  0
   33.3107   40.8726   58.7100 H   0  0  0  0  0  0  0  0  0  0  0  0
   33.9874   40.3509   56.4483 H   0  0  0  0  0  0  0  0  0  0  0  0
   34.2939   38.7133   54.6257 H   0  0  0  0  0  0  0  0  0  0  0  0
   34.1197   36.4198   53.8219 H   0  0  0  0  0  0  0  0  0  0  0  0
   33.2659   34.6356   55.2798 H   0  0  0  0  0  0  0  0  0  0  0  0
   32.5718   35.1190   57.5675 H   0  0  0  0  0  0  0  0  0  0  0  0
   31.5948   35.6584   59.2991 H   0  0  0  0  0  0  0  0  0  0  0  0
   32.4287   36.3229   63.8239 H   0  0  0  0  0  0  0  0  0  0  0  0
   30.8692   34.1939   60.4986 H   0  0  0  0  0  0  0  0  0  0  0  0
  1  2  1  0  0  0  0
  1 19  1  0  0  0  0
  2 11  2  0  0  0  0
  2  3  1  0  0  0  0
  3  4  2  0  0  0  0
  3 20  1  0  0  0  0
  4  5  1  0  0  0  0
  4 21  1  0  0  0  0
  5 10  2  0  0  0  0
  5  6  1  0  0  0  0
  6  7  2  0  0  0  0
  6 22  1  0  0  0  0
  7  8  1  0  0  0  0
  7 23  1  0  0  0  0
  8  9  2  0  0  0  0
  8 24  1  0  0  0  0
  9 10  1  0  0  0  0
  9 25  1  0  0  0  0
 10 11  1  0  0  0  0
 11 12  1  0  0  0  0
 12 13  2  0  0  0  0
 12 26  1  0  0  0  0
 13 14  1  0  0  0  0
 14 18  1  0  0  0  0
 14 15  1  0  0  0  0
 15 16  2  0  0  0  0
 15 27  1  0  0  0  0
 16 17  1  0  0  0  0
 17 18  2  0  0  0  0
 18 28  1  0  0  0  0
M  END
$$$$
