ZINC000000042117      none
 OpenBabel11202420153D

 43 45  0  0  0  0  0  0  0  0999 V2000
   35.0307   34.6846   54.3801 C   0  0  0  0  0  0  0  0  0  0  0  0
   34.8220   35.9308   54.7261 C   0  0  0  0  0  0  0  0  0  0  0  0
   33.4156   36.4670   54.8001 C   0  0  0  0  0  0  0  0  0  0  0  0
   33.1397   36.9279   56.1630 N   0  0  0  0  0  0  0  0  0  0  0  0
   32.6211   36.0672   57.0632 C   0  0  0  0  0  0  0  0  0  0  0  0
   32.3833   34.9146   56.7469 O   0  0  0  0  0  0  0  0  0  0  0  0
   32.3575   36.5142   58.3700 C   0  0  0  0  0  0  0  0  0  0  0  0
   32.6375   37.8344   58.7055 C   0  0  0  0  0  0  0  0  0  0  0  0
   32.3013   38.0043   59.9852 N   0  0  0  0  0  0  0  0  0  0  0  0
   31.8278   36.8783   60.4793 C   0  0  0  0  0  0  0  0  0  0  0  0
   31.3871   36.6996   61.7705 N   0  0  0  0  0  0  0  0  0  0  0  0
   29.9351   36.8990   61.8634 C   0  0  0  0  0  0  0  0  0  0  0  0
   29.4606   36.5514   63.2763 C   0  0  0  0  0  0  0  0  0  0  0  0
   30.1832   37.4465   64.2867 C   0  0  0  0  0  0  0  0  0  0  0  0
   31.6950   37.2557   64.1361 C   0  0  0  0  0  0  0  0  0  0  0  0
   32.1048   37.5829   62.6985 C   0  0  0  0  0  0  0  0  0  0  0  0
   31.8418   35.9209   59.5145 N   0  0  0  0  0  0  0  0  0  0  0  0
   31.3983   34.5317   59.6550 C   0  0  0  0  0  0  0  0  0  0  0  0
   33.1695   38.6708   57.7374 N   0  0  0  0  0  0  0  0  0  0  0  0
   33.4741   40.0663   58.0629 C   0  0  0  0  0  0  0  0  0  0  0  0
   33.4067   38.2021   56.4977 C   0  0  0  0  0  0  0  0  0  0  0  0
   33.8786   38.9485   55.6616 O   0  0  0  0  0  0  0  0  0  0  0  0
   36.0386   34.3004   54.3271 H   0  0  0  0  0  0  0  0  0  0  0  0
   34.1947   34.0416   54.1478 H   0  0  0  0  0  0  0  0  0  0  0  0
   35.6580   36.5739   54.9584 H   0  0  0  0  0  0  0  0  0  0  0  0
   32.7117   35.6786   54.5337 H   0  0  0  0  0  0  0  0  0  0  0  0
   33.3075   37.3004   54.1058 H   0  0  0  0  0  0  0  0  0  0  0  0
   29.6970   37.9402   61.6462 H   0  0  0  0  0  0  0  0  0  0  0  0
   29.4332   36.2537   61.1426 H   0  0  0  0  0  0  0  0  0  0  0  0
   29.6860   35.5065   63.4891 H   0  0  0  0  0  0  0  0  0  0  0  0
   28.3854   36.7146   63.3493 H   0  0  0  0  0  0  0  0  0  0  0  0
   29.8804   37.1729   65.2975 H   0  0  0  0  0  0  0  0  0  0  0  0
   29.9272   38.4894   64.0995 H   0  0  0  0  0  0  0  0  0  0  0  0
   31.9556   36.2218   64.3626 H   0  0  0  0  0  0  0  0  0  0  0  0
   32.2166   37.9215   64.8237 H   0  0  0  0  0  0  0  0  0  0  0  0
   33.1786   37.4341   62.5842 H   0  0  0  0  0  0  0  0  0  0  0  0
   31.8563   38.6209   62.4775 H   0  0  0  0  0  0  0  0  0  0  0  0
   32.2555   33.8976   59.8812 H   0  0  0  0  0  0  0  0  0  0  0  0
   30.6715   34.4625   60.4645 H   0  0  0  0  0  0  0  0  0  0  0  0
   30.9376   34.2015   58.7239 H   0  0  0  0  0  0  0  0  0  0  0  0
   33.8820   40.5640   57.1831 H   0  0  0  0  0  0  0  0  0  0  0  0
   32.5621   40.5736   58.3772 H   0  0  0  0  0  0  0  0  0  0  0  0
   34.2053   40.0997   58.8707 H   0  0  0  0  0  0  0  0  0  0  0  0
  1  2  2  0  0  0  0
  1 23  1  0  0  0  0
  1 24  1  0  0  0  0
  2  3  1  0  0  0  0
  2 25  1  0  0  0  0
  3  4  1  0  0  0  0
  3 26  1  0  0  0  0
  3 27  1  0  0  0  0
  4 21  1  0  0  0  0
  4  5  1  0  0  0  0
  5  6  2  0  0  0  0
  5  7  1  0  0  0  0
  7 17  1  0  0  0  0
  7  8  2  0  0  0  0
  8  9  1  0  0  0  0
  8 19  1  0  0  0  0
  9 10  2  0  0  0  0
 10 11  1  0  0  0  0
 10 17  1  0  0  0  0
 11 16  1  0  0  0  0
 11 12  1  0  0  0  0
 12 13  1  0  0  0  0
 12 28  1  0  0  0  0
 12 29  1  0  0  0  0
 13 14  1  0  0  0  0
 13 30  1  0  0  0  0
 13 31  1  0  0  0  0
 14 15  1  0  0  0  0
 14 32  1  0  0  0  0
 14 33  1  0  0  0  0
 15 16  1  0  0  0  0
 15 34  1  0  0  0  0
 15 35  1  0  0  0  0
 16 36  1  0  0  0  0
 16 37  1  0  0  0  0
 17 18  1  0  0  0  0
 18 38  1  0  0  0  0
 18 39  1  0  0  0  0
 18 40  1  0  0  0  0
 19 20  1  0  0  0  0
 19 21  1  0  0  0  0
 20 41  1  0  0  0  0
 20 42  1  0  0  0  0
 20 43  1  0  0  0  0
 21 22  2  0  0  0  0
M  END
$$$$
