ZINC000000032971      none
 OpenBabel11202420153D

 38 40  0  0  0  0  0  0  0  0999 V2000
   31.6718   38.0153   66.8844 C   0  0  0  0  0  0  0  0  0  0  0  0
   31.2991   36.8099   66.0601 C   0  0  0  0  0  0  0  0  0  0  0  0
   31.8843   36.6251   64.8089 C   0  0  0  0  0  0  0  0  0  0  0  0
   31.5705   35.5476   64.0393 C   0  0  0  0  0  0  0  0  0  0  0  0
   32.3250   35.3386   62.4608 S   0  0  0  0  0  0  0  0  0  0  0  0
   32.6851   33.9673   62.3665 O   0  0  0  0  0  0  0  0  0  0  0  0
   33.2600   36.3994   62.3193 O   0  0  0  0  0  0  0  0  0  0  0  0
   31.1524   35.5937   61.3194 N   0  0  0  0  0  0  0  0  0  0  0  0
   30.9256   36.9410   60.7907 C   0  0  0  0  0  0  0  0  0  0  0  0
   31.7965   37.1587   59.5802 C   0  0  0  0  0  0  0  0  0  0  0  0
   32.2502   38.4281   59.2745 C   0  0  0  0  0  0  0  0  0  0  0  0
   33.0496   38.6277   58.1644 C   0  0  0  0  0  0  0  0  0  0  0  0
   33.3940   37.5580   57.3594 C   0  0  0  0  0  0  0  0  0  0  0  0
   32.9406   36.2885   57.6654 C   0  0  0  0  0  0  0  0  0  0  0  0
   32.1420   36.0888   58.7760 C   0  0  0  0  0  0  0  0  0  0  0  0
   30.6376   34.6049   64.5060 C   0  0  0  0  0  0  0  0  0  0  0  0
   30.3058   33.5398   63.7694 N   0  0  0  0  0  0  0  0  0  0  0  0
   29.4363   32.6580   64.1996 C   0  0  0  0  0  0  0  0  0  0  0  0
   28.8161   32.7852   65.4408 C   0  0  0  0  0  0  0  0  0  0  0  0
   29.1182   33.8445   66.2483 C   0  0  0  0  0  0  0  0  0  0  0  0
   30.0480   34.7922   65.7805 C   0  0  0  0  0  0  0  0  0  0  0  0
   30.3956   35.9160   66.5477 C   0  0  0  0  0  0  0  0  0  0  0  0
   30.9991   38.8395   66.6476 H   0  0  0  0  0  0  0  0  0  0  0  0
   31.5885   37.7710   67.9435 H   0  0  0  0  0  0  0  0  0  0  0  0
   32.6975   38.3070   66.6584 H   0  0  0  0  0  0  0  0  0  0  0  0
   32.5987   37.3484   64.4442 H   0  0  0  0  0  0  0  0  0  0  0  0
   30.6158   34.8510   61.0011 H   0  0  0  0  0  0  0  0  0  0  0  0
   31.1743   37.6778   61.5544 H   0  0  0  0  0  0  0  0  0  0  0  0
   29.8782   37.0491   60.5089 H   0  0  0  0  0  0  0  0  0  0  0  0
   31.9766   39.2648   59.9003 H   0  0  0  0  0  0  0  0  0  0  0  0
   33.4038   39.6195   57.9253 H   0  0  0  0  0  0  0  0  0  0  0  0
   34.0183   37.7140   56.4921 H   0  0  0  0  0  0  0  0  0  0  0  0
   33.2106   35.4526   57.0371 H   0  0  0  0  0  0  0  0  0  0  0  0
   31.7879   35.0969   59.0151 H   0  0  0  0  0  0  0  0  0  0  0  0
   29.1946   31.8106   63.5755 H   0  0  0  0  0  0  0  0  0  0  0  0
   28.1041   32.0419   65.7678 H   0  0  0  0  0  0  0  0  0  0  0  0
   28.6470   33.9587   67.2133 H   0  0  0  0  0  0  0  0  0  0  0  0
   29.9486   36.0703   67.5186 H   0  0  0  0  0  0  0  0  0  0  0  0
  1  2  1  0  0  0  0
  1 23  1  0  0  0  0
  1 24  1  0  0  0  0
  1 25  1  0  0  0  0
  2 22  2  0  0  0  0
  2  3  1  0  0  0  0
  3  4  2  0  0  0  0
  3 26  1  0  0  0  0
  4  5  1  0  0  0  0
  4 16  1  0  0  0  0
  5  6  2  0  0  0  0
  5  7  2  0  0  0  0
  5  8  1  0  0  0  0
  8  9  1  0  0  0  0
  8 27  1  0  0  0  0
  9 10  1  0  0  0  0
  9 28  1  0  0  0  0
  9 29  1  0  0  0  0
 10 15  2  0  0  0  0
 10 11  1  0  0  0  0
 11 12  2  0  0  0  0
 11 30  1  0  0  0  0
 12 13  1  0  0  0  0
 12 31  1  0  0  0  0
 13 14  2  0  0  0  0
 13 32  1  0  0  0  0
 14 15  1  0  0  0  0
 14 33  1  0  0  0  0
 15 34  1  0  0  0  0
 16 21  2  0  0  0  0
 16 17  1  0  0  0  0
 17 18  2  0  0  0  0
 18 19  1  0  0  0  0
 18 35  1  0  0  0  0
 19 20  2  0  0  0  0
 19 36  1  0  0  0  0
 20 21  1  0  0  0  0
 20 37  1  0  0  0  0
 21 22  1  0  0  0  0
 22 38  1  0  0  0  0
M  END
$$$$
