ZINC000000010968      none
 OpenBabel11202420153D

 31 33  0  0  1  0  0  0  0  0999 V2000
   30.7552   32.3893   62.2344 O   0  0  0  0  0  0  0  0  0  0  0  0
   30.8673   33.4510   62.8097 C   0  0  0  0  0  0  0  0  0  0  0  0
   30.4443   33.7169   64.0675 N   0  0  0  0  0  0  0  0  0  0  0  0
   30.5510   35.1587   64.2883 C   0  0  1  0  0  0  0  0  0  0  0  0
   29.6132   35.6633   64.0559 H   0  0  0  0  0  0  0  0  0  0  0  0
   31.0380   35.5141   65.7024 C   0  0  0  0  0  0  0  0  0  0  0  0
   31.9076   36.7638   65.4129 C   0  0  0  0  0  0  0  0  0  0  0  0
   32.3444   36.5883   63.9725 C   0  0  0  0  0  0  0  0  0  0  0  0
   33.2070   37.2409   63.4237 O   0  0  0  0  0  0  0  0  0  0  0  0
   31.6399   35.6094   63.3946 N   0  0  0  0  0  0  0  0  0  0  0  0
   31.5129   34.6944   62.2466 C   0  0  2  0  0  0  0  0  0  0  0  0
   32.4947   34.4679   61.8308 H   0  0  0  0  0  0  0  0  0  0  0  0
   30.6066   35.3049   61.1757 C   0  0  0  0  0  0  0  0  0  0  0  0
   31.4051   36.2607   60.3271 C   0  0  0  0  0  0  0  0  0  0  0  0
   31.4883   37.5946   60.6803 C   0  0  0  0  0  0  0  0  0  0  0  0
   32.2247   38.4703   59.9046 C   0  0  0  0  0  0  0  0  0  0  0  0
   32.8696   38.0142   58.7702 C   0  0  0  0  0  0  0  0  0  0  0  0
   32.7817   36.6814   58.4139 C   0  0  0  0  0  0  0  0  0  0  0  0
   32.0497   35.8047   59.1925 C   0  0  0  0  0  0  0  0  0  0  0  0
   30.1263   33.0644   64.7109 H   0  0  0  0  0  0  0  0  0  0  0  0
   31.6378   34.7079   66.1249 H   0  0  0  0  0  0  0  0  0  0  0  0
   30.2007   35.7613   66.3550 H   0  0  0  0  0  0  0  0  0  0  0  0
   32.7740   36.7870   66.0740 H   0  0  0  0  0  0  0  0  0  0  0  0
   31.3174   37.6733   65.5244 H   0  0  0  0  0  0  0  0  0  0  0  0
   30.2020   34.5118   60.5470 H   0  0  0  0  0  0  0  0  0  0  0  0
   29.7881   35.8417   61.6553 H   0  0  0  0  0  0  0  0  0  0  0  0
   30.9810   37.9518   61.5643 H   0  0  0  0  0  0  0  0  0  0  0  0
   32.2930   39.5116   60.1827 H   0  0  0  0  0  0  0  0  0  0  0  0
   33.4419   38.6991   58.1621 H   0  0  0  0  0  0  0  0  0  0  0  0
   33.2853   36.3250   57.5274 H   0  0  0  0  0  0  0  0  0  0  0  0
   31.9810   34.7634   58.9141 H   0  0  0  0  0  0  0  0  0  0  0  0
  1  2  2  0  0  0  0
  2 11  1  0  0  0  0
  2  3  1  0  0  0  0
  3  4  1  0  0  0  0
  3 20  1  0  0  0  0
  4  5  1  6  0  0  0
  4 10  1  0  0  0  0
  4  6  1  0  0  0  0
  6  7  1  0  0  0  0
  6 21  1  0  0  0  0
  6 22  1  0  0  0  0
  7  8  1  0  0  0  0
  7 23  1  0  0  0  0
  7 24  1  0  0  0  0
  8  9  2  0  0  0  0
  8 10  1  0  0  0  0
 10 11  1  0  0  0  0
 11 12  1  6  0  0  0
 11 13  1  0  0  0  0
 13 14  1  0  0  0  0
 13 25  1  0  0  0  0
 13 26  1  0  0  0  0
 14 19  2  0  0  0  0
 14 15  1  0  0  0  0
 15 16  2  0  0  0  0
 15 27  1  0  0  0  0
 16 17  1  0  0  0  0
 16 28  1  0  0  0  0
 17 18  2  0  0  0  0
 17 29  1  0  0  0  0
 18 19  1  0  0  0  0
 18 30  1  0  0  0  0
 19 31  1  0  0  0  0
M  END
$$$$
