ZINC000000054479      none
 OpenBabel11202420153D

 23 23  0  0  0  0  0  0  0  0999 V2000
   31.4914   35.5436   66.2678 C   0  0  0  0  0  0  0  0  0  0  0  0
   30.7615   36.8059   65.8875 C   0  0  0  0  0  0  0  0  0  0  0  0
   30.4650   37.1854   64.6344 O   0  0  0  0  0  0  0  0  0  0  0  0
   29.8189   38.3541   64.6295 C   0  0  0  0  0  0  0  0  0  0  0  0
   29.3336   39.0884   63.4061 C   0  0  0  0  0  0  0  0  0  0  0  0
   29.6724   38.7705   65.9229 C   0  0  0  0  0  0  0  0  0  0  0  0
   29.0222   40.0021   66.3920 C   0  0  0  0  0  0  0  0  0  0  0  0
   27.8254   40.0031   66.6472 O   0  0  0  0  0  0  0  0  0  0  0  0
   29.6776   41.0265   66.5275 O   0  0  0  0  0  1  0  0  0  0  0  0
   30.3022   37.7271   66.7471 C   0  0  0  0  0  0  0  0  0  0  0  0
   30.4141   37.7019   68.2498 C   0  0  0  0  0  0  0  0  0  0  0  0
   31.6572   38.3688   68.6595 N   0  3  0  0  0  0  0  0  0  0  0  0
   32.4463   37.8870   68.2552 H   0  0  0  0  0  0  0  0  0  0  0  0
   31.6471   39.3254   68.3389 H   0  0  0  0  0  0  0  0  0  0  0  0
   31.7322   38.3517   69.6656 H   0  0  0  0  0  0  0  0  0  0  0  0
   30.7718   34.7387   66.4174 H   0  0  0  0  0  0  0  0  0  0  0  0
   32.1828   35.2695   65.4710 H   0  0  0  0  0  0  0  0  0  0  0  0
   32.0478   35.7096   67.1903 H   0  0  0  0  0  0  0  0  0  0  0  0
   30.1144   39.7619   63.0531 H   0  0  0  0  0  0  0  0  0  0  0  0
   29.0922   38.3697   62.6230 H   0  0  0  0  0  0  0  0  0  0  0  0
   28.4431   39.6645   63.6577 H   0  0  0  0  0  0  0  0  0  0  0  0
   30.4250   36.6683   68.5960 H   0  0  0  0  0  0  0  0  0  0  0  0
   29.5617   38.2223   68.6864 H   0  0  0  0  0  0  0  0  0  0  0  0
  1  2  1  0  0  0  0
  1 16  1  0  0  0  0
  1 17  1  0  0  0  0
  1 18  1  0  0  0  0
  2 10  2  0  0  0  0
  2  3  1  0  0  0  0
  3  4  1  0  0  0  0
  4  5  1  0  0  0  0
  4  6  2  0  0  0  0
  5 19  1  0  0  0  0
  5 20  1  0  0  0  0
  5 21  1  0  0  0  0
  6  7  1  0  0  0  0
  6 10  1  0  0  0  0
  7  8  2  0  0  0  0
  7  9  1  0  0  0  0
 10 11  1  0  0  0  0
 11 12  1  0  0  0  0
 11 22  1  0  0  0  0
 11 23  1  0  0  0  0
 12 13  1  0  0  0  0
 12 14  1  0  0  0  0
 12 15  1  0  0  0  0
M  CHG  1  12   1
M  END
$$$$
