ZINC000000013163      none
 OpenBabel11202420153D

 32 34  0  0  0  0  0  0  0  0999 V2000
   29.2190   37.0726   62.0420 C   0  0  0  0  0  0  0  0  0  0  0  0
   30.0913   35.8687   62.2885 C   0  0  0  0  0  0  0  0  0  0  0  0
   29.6154   34.8124   63.0405 C   0  0  0  0  0  0  0  0  0  0  0  0
   30.4149   33.7073   63.2669 C   0  0  0  0  0  0  0  0  0  0  0  0
   31.6933   33.6552   62.7413 C   0  0  0  0  0  0  0  0  0  0  0  0
   32.1752   34.7077   61.9887 C   0  0  0  0  0  0  0  0  0  0  0  0
   31.3726   35.8175   61.7549 C   0  0  0  0  0  0  0  0  0  0  0  0
   31.8554   36.8822   60.9891 N   0  0  0  0  0  0  0  0  0  0  0  0
   32.2385   36.6722   59.6747 C   0  0  0  0  0  0  0  0  0  0  0  0
   32.1488   35.4678   59.1426 N   0  0  0  0  0  0  0  0  0  0  0  0
   32.5016   35.2110   57.8901 C   0  0  0  0  0  0  0  0  0  0  0  0
   32.9831   36.1791   57.0637 C   0  0  0  0  0  0  0  0  0  0  0  0
   33.1094   37.4926   57.5564 C   0  0  0  0  0  0  0  0  0  0  0  0
   33.5969   38.5426   56.7662 C   0  0  0  0  0  0  0  0  0  0  0  0
   33.6793   39.7966   57.2939 C   0  0  0  0  0  0  0  0  0  0  0  0
   33.3034   40.0459   58.6117 C   0  0  0  0  0  0  0  0  0  0  0  0
   32.8310   39.0462   59.4090 C   0  0  0  0  0  0  0  0  0  0  0  0
   32.7214   37.7474   58.8960 C   0  0  0  0  0  0  0  0  0  0  0  0
   29.3765   37.8038   62.8347 H   0  0  0  0  0  0  0  0  0  0  0  0
   28.1727   36.7672   62.0320 H   0  0  0  0  0  0  0  0  0  0  0  0
   29.4769   37.5174   61.0808 H   0  0  0  0  0  0  0  0  0  0  0  0
   28.6176   34.8497   63.4520 H   0  0  0  0  0  0  0  0  0  0  0  0
   30.0405   32.8828   63.8556 H   0  0  0  0  0  0  0  0  0  0  0  0
   32.3153   32.7907   62.9203 H   0  0  0  0  0  0  0  0  0  0  0  0
   33.1735   34.6666   61.5785 H   0  0  0  0  0  0  0  0  0  0  0  0
   31.9222   37.7684   61.3780 H   0  0  0  0  0  0  0  0  0  0  0  0
   32.4035   34.2031   57.5146 H   0  0  0  0  0  0  0  0  0  0  0  0
   33.2639   35.9442   56.0476 H   0  0  0  0  0  0  0  0  0  0  0  0
   33.8916   38.3624   55.7429 H   0  0  0  0  0  0  0  0  0  0  0  0
   34.0503   40.6071   56.6842 H   0  0  0  0  0  0  0  0  0  0  0  0
   33.3878   41.0469   59.0081 H   0  0  0  0  0  0  0  0  0  0  0  0
   32.5436   39.2542   60.4290 H   0  0  0  0  0  0  0  0  0  0  0  0
  1  2  1  0  0  0  0
  1 19  1  0  0  0  0
  1 20  1  0  0  0  0
  1 21  1  0  0  0  0
  2  7  2  0  0  0  0
  2  3  1  0  0  0  0
  3  4  2  0  0  0  0
  3 22  1  0  0  0  0
  4  5  1  0  0  0  0
  4 23  1  0  0  0  0
  5  6  2  0  0  0  0
  5 24  1  0  0  0  0
  6  7  1  0  0  0  0
  6 25  1  0  0  0  0
  7  8  1  0  0  0  0
  8  9  1  0  0  0  0
  8 26  1  0  0  0  0
  9 18  2  0  0  0  0
  9 10  1  0  0  0  0
 10 11  2  0  0  0  0
 11 12  1  0  0  0  0
 11 27  1  0  0  0  0
 12 13  2  0  0  0  0
 12 28  1  0  0  0  0
 13 18  1  0  0  0  0
 13 14  1  0  0  0  0
 14 15  2  0  0  0  0
 14 29  1  0  0  0  0
 15 16  1  0  0  0  0
 15 30  1  0  0  0  0
 16 17  2  0  0  0  0
 16 31  1  0  0  0  0
 17 18  1  0  0  0  0
 17 32  1  0  0  0  0
M  END
$$$$
