ZINC000000030406      none
 OpenBabel11202420163D

 38 38  0  0  0  0  0  0  0  0999 V2000
   34.8887   31.5166   54.7194 C   0  0  0  0  0  0  0  0  0  0  0  0
   35.0404   32.9118   55.3287 C   0  0  0  0  0  0  0  0  0  0  0  0
   33.7525   33.7078   55.1077 C   0  0  0  0  0  0  0  0  0  0  0  0
   32.5837   32.9828   55.7780 C   0  0  0  0  0  0  0  0  0  0  0  0
   33.4818   33.8331   53.6070 C   0  0  0  0  0  0  0  0  0  0  0  0
   33.9021   35.0819   55.7078 C   0  0  0  0  0  0  0  0  0  0  0  0
   34.7765   35.8241   55.3135 O   0  0  0  0  0  0  0  0  0  0  0  0
   33.0639   35.4862   56.6829 N   0  0  0  0  0  0  0  0  0  0  0  0
   33.2028   36.7640   57.2409 C   0  0  0  0  0  0  0  0  0  0  0  0
   33.7029   37.8069   56.4749 C   0  0  0  0  0  0  0  0  0  0  0  0
   33.8386   39.0663   57.0273 C   0  0  0  0  0  0  0  0  0  0  0  0
   33.4765   39.2907   58.3429 C   0  0  0  0  0  0  0  0  0  0  0  0
   33.6260   40.6666   58.9392 C   0  0  0  0  0  0  0  0  0  0  0  0
   32.9729   38.2575   59.1110 C   0  0  0  0  0  0  0  0  0  0  0  0
   32.8388   36.9907   58.5662 C   0  0  0  0  0  0  0  0  0  0  0  0
   32.3476   35.9724   59.3218 O   0  0  0  0  0  0  0  0  0  0  0  0
   31.9951   36.2782   60.6724 C   0  0  0  0  0  0  0  0  0  0  0  0
   34.6958   31.6060   53.6504 H   0  0  0  0  0  0  0  0  0  0  0  0
   35.8062   30.9497   54.8769 H   0  0  0  0  0  0  0  0  0  0  0  0
   34.0560   31.0002   55.1970 H   0  0  0  0  0  0  0  0  0  0  0  0
   35.8731   33.4282   54.8512 H   0  0  0  0  0  0  0  0  0  0  0  0
   35.2333   32.8224   56.3978 H   0  0  0  0  0  0  0  0  0  0  0  0
   31.6662   33.5499   55.6205 H   0  0  0  0  0  0  0  0  0  0  0  0
   32.4756   31.9889   55.3439 H   0  0  0  0  0  0  0  0  0  0  0  0
   32.7766   32.8934   56.8470 H   0  0  0  0  0  0  0  0  0  0  0  0
   34.3145   34.3496   53.1295 H   0  0  0  0  0  0  0  0  0  0  0  0
   33.3737   32.8392   53.1730 H   0  0  0  0  0  0  0  0  0  0  0  0
   32.5643   34.4002   53.4496 H   0  0  0  0  0  0  0  0  0  0  0  0
   32.3646   34.8926   56.9982 H   0  0  0  0  0  0  0  0  0  0  0  0
   33.9858   37.6347   55.4469 H   0  0  0  0  0  0  0  0  0  0  0  0
   34.2281   39.8775   56.4300 H   0  0  0  0  0  0  0  0  0  0  0  0
   32.7083   41.2330   58.7805 H   0  0  0  0  0  0  0  0  0  0  0  0
   33.8192   40.5802   60.0084 H   0  0  0  0  0  0  0  0  0  0  0  0
   34.4584   41.1818   58.4600 H   0  0  0  0  0  0  0  0  0  0  0  0
   32.6873   38.4371   60.1369 H   0  0  0  0  0  0  0  0  0  0  0  0
   31.6180   35.3802   61.1617 H   0  0  0  0  0  0  0  0  0  0  0  0
   31.2234   37.0480   60.6812 H   0  0  0  0  0  0  0  0  0  0  0  0
   32.8750   36.6397   61.2046 H   0  0  0  0  0  0  0  0  0  0  0  0
  1  2  1  0  0  0  0
  1 18  1  0  0  0  0
  1 19  1  0  0  0  0
  1 20  1  0  0  0  0
  2  3  1  0  0  0  0
  2 21  1  0  0  0  0
  2 22  1  0  0  0  0
  3  4  1  0  0  0  0
  3  5  1  0  0  0  0
  3  6  1  0  0  0  0
  4 23  1  0  0  0  0
  4 24  1  0  0  0  0
  4 25  1  0  0  0  0
  5 26  1  0  0  0  0
  5 27  1  0  0  0  0
  5 28  1  0  0  0  0
  6  7  2  0  0  0  0
  6  8  1  0  0  0  0
  8  9  1  0  0  0  0
  8 29  1  0  0  0  0
  9 15  2  0  0  0  0
  9 10  1  0  0  0  0
 10 11  2  0  0  0  0
 10 30  1  0  0  0  0
 11 12  1  0  0  0  0
 11 31  1  0  0  0  0
 12 13  1  0  0  0  0
 12 14  2  0  0  0  0
 13 32  1  0  0  0  0
 13 33  1  0  0  0  0
 13 34  1  0  0  0  0
 14 15  1  0  0  0  0
 14 35  1  0  0  0  0
 15 16  1  0  0  0  0
 16 17  1  0  0  0  0
 17 36  1  0  0  0  0
 17 37  1  0  0  0  0
 17 38  1  0  0  0  0
M  END
$$$$
