ZINC000000036339      none
 OpenBabel11202420153D

 34 35  0  0  0  0  0  0  0  0999 V2000
   34.0921   39.5374   56.0858 C   0  0  0  0  0  0  0  0  0  0  0  0
   33.5398   38.4960   56.8935 O   0  0  0  0  0  0  0  0  0  0  0  0
   33.3940   37.2753   56.3123 C   0  0  0  0  0  0  0  0  0  0  0  0
   33.7724   37.0857   55.0019 C   0  0  0  0  0  0  0  0  0  0  0  0
   33.6316   35.8452   54.3904 C   0  0  0  0  0  0  0  0  0  0  0  0
   33.1086   34.7754   55.0851 C   0  0  0  0  0  0  0  0  0  0  0  0
   32.9750   33.5673   54.4789 O   0  0  0  0  0  0  0  0  0  0  0  0
   33.4028   33.4732   53.1187 C   0  0  0  0  0  0  0  0  0  0  0  0
   32.7087   34.9431   56.4230 C   0  0  0  0  0  0  0  0  0  0  0  0
   32.1630   33.8688   57.1616 C   0  0  0  0  0  0  0  0  0  0  0  0
   32.0059   32.6212   56.5945 N   0  0  0  0  0  0  0  0  0  0  0  0
   31.7868   34.1132   58.4910 C   0  0  0  0  0  0  0  0  0  0  0  0
   31.2276   33.0643   59.2896 C   0  0  0  0  0  0  0  0  0  0  0  0
   30.7840   32.2322   59.9231 N   0  0  0  0  0  0  0  0  0  0  0  0
   31.9643   35.3981   59.0299 C   0  0  0  0  0  0  0  0  0  0  0  0
   31.5591   35.6588   60.4579 C   0  0  0  0  0  0  0  0  0  0  0  0
   30.4921   34.8212   60.8003 F   0  0  0  0  0  0  0  0  0  0  0  0
   32.6432   35.4028   61.3044 F   0  0  0  0  0  0  0  0  0  0  0  0
   31.1292   37.1195   60.6074 C   0  0  0  0  0  0  0  0  0  0  0  0
   30.0452   37.3755   59.7608 F   0  0  0  0  0  0  0  0  0  0  0  0
   30.7530   37.3615   61.9330 F   0  0  0  0  0  0  0  0  0  0  0  0
   32.1962   37.9571   60.2651 F   0  0  0  0  0  0  0  0  0  0  0  0
   32.4831   36.3712   58.3258 N   0  0  0  0  0  0  0  0  0  0  0  0
   32.8565   36.2035   57.0490 C   0  0  0  0  0  0  0  0  0  0  0  0
   35.0900   39.2497   55.7545 H   0  0  0  0  0  0  0  0  0  0  0  0
   33.4542   39.7008   55.2173 H   0  0  0  0  0  0  0  0  0  0  0  0
   34.1538   40.4560   56.6693 H   0  0  0  0  0  0  0  0  0  0  0  0
   34.1845   37.9119   54.4416 H   0  0  0  0  0  0  0  0  0  0  0  0
   33.9345   35.7185   53.3615 H   0  0  0  0  0  0  0  0  0  0  0  0
   34.4630   33.7180   53.0535 H   0  0  0  0  0  0  0  0  0  0  0  0
   32.8303   34.1718   52.5085 H   0  0  0  0  0  0  0  0  0  0  0  0
   33.2415   32.4578   52.7566 H   0  0  0  0  0  0  0  0  0  0  0  0
   32.5749   32.3480   55.8580 H   0  0  0  0  0  0  0  0  0  0  0  0
   31.3262   32.0171   56.9321 H   0  0  0  0  0  0  0  0  0  0  0  0
  1  2  1  0  0  0  0
  1 25  1  0  0  0  0
  1 26  1  0  0  0  0
  1 27  1  0  0  0  0
  2  3  1  0  0  0  0
  3 24  2  0  0  0  0
  3  4  1  0  0  0  0
  4  5  2  0  0  0  0
  4 28  1  0  0  0  0
  5  6  1  0  0  0  0
  5 29  1  0  0  0  0
  6  7  1  0  0  0  0
  6  9  2  0  0  0  0
  7  8  1  0  0  0  0
  8 30  1  0  0  0  0
  8 31  1  0  0  0  0
  8 32  1  0  0  0  0
  9 24  1  0  0  0  0
  9 10  1  0  0  0  0
 10 11  1  0  0  0  0
 10 12  2  0  0  0  0
 11 33  1  0  0  0  0
 11 34  1  0  0  0  0
 12 13  1  0  0  0  0
 12 15  1  0  0  0  0
 13 14  3  0  0  0  0
 15 16  1  0  0  0  0
 15 23  2  0  0  0  0
 16 17  1  0  0  0  0
 16 18  1  0  0  0  0
 16 19  1  0  0  0  0
 19 20  1  0  0  0  0
 19 21  1  0  0  0  0
 19 22  1  0  0  0  0
 23 24  1  0  0  0  0
M  END
$$$$
