ZINC000000034281      none
 OpenBabel11202420153D

 39 41  0  0  0  0  0  0  0  0999 V2000
   35.1347   38.8566   52.5969 C   0  0  0  0  0  0  0  0  0  0  0  0
   34.9062   39.5944   53.7993 O   0  0  0  0  0  0  0  0  0  0  0  0
   34.4276   38.9016   54.8670 C   0  0  0  0  0  0  0  0  0  0  0  0
   34.1839   39.5559   56.0655 C   0  0  0  0  0  0  0  0  0  0  0  0
   33.6982   38.8522   57.1502 C   0  0  0  0  0  0  0  0  0  0  0  0
   33.4542   37.4912   57.0412 C   0  0  0  0  0  0  0  0  0  0  0  0
   32.9764   36.7982   58.1091 O   0  0  0  0  0  0  0  0  0  0  0  0
   32.7481   35.3996   57.9256 C   0  0  0  0  0  0  0  0  0  0  0  0
   32.2232   34.8040   59.2065 C   0  0  0  0  0  0  0  0  0  0  0  0
   31.9322   33.4527   59.2692 C   0  0  0  0  0  0  0  0  0  0  0  0
   31.4468   32.9019   60.4372 C   0  0  0  0  0  0  0  0  0  0  0  0
   31.2586   33.7098   61.5605 C   0  0  0  0  0  0  0  0  0  0  0  0
   30.7438   33.1256   62.8168 C   0  0  0  0  0  0  0  0  0  0  0  0
   30.9363   31.9507   63.0644 O   0  0  0  0  0  0  0  0  0  0  0  0
   30.0614   33.8947   63.6876 N   0  0  0  0  0  0  0  0  0  0  0  0
   29.5774   33.3453   64.8689 C   0  0  0  0  0  0  0  0  0  0  0  0
   28.9065   33.9744   65.7903 N   0  0  0  0  0  0  0  0  0  0  0  0
   28.5435   33.3156   66.8023 N   0  0  0  0  0  0  0  0  0  0  0  0
   28.8616   32.0625   66.8562 C   0  0  0  0  0  0  0  0  0  0  0  0
   29.7549   31.6673   65.3864 S   0  0  0  0  0  0  0  0  0  0  0  0
   31.5591   35.0709   61.4918 C   0  0  0  0  0  0  0  0  0  0  0  0
   32.0388   35.6099   60.3160 C   0  0  0  0  0  0  0  0  0  0  0  0
   33.7029   36.8359   55.8442 C   0  0  0  0  0  0  0  0  0  0  0  0
   34.1837   37.5406   54.7579 C   0  0  0  0  0  0  0  0  0  0  0  0
   35.5149   39.5270   51.8261 H   0  0  0  0  0  0  0  0  0  0  0  0
   35.8646   38.0698   52.7866 H   0  0  0  0  0  0  0  0  0  0  0  0
   34.1985   38.4105   52.2609 H   0  0  0  0  0  0  0  0  0  0  0  0
   34.3743   40.6156   56.1505 H   0  0  0  0  0  0  0  0  0  0  0  0
   33.5088   39.3616   58.0835 H   0  0  0  0  0  0  0  0  0  0  0  0
   33.6841   34.9112   57.6546 H   0  0  0  0  0  0  0  0  0  0  0  0
   32.0177   35.2520   57.1302 H   0  0  0  0  0  0  0  0  0  0  0  0
   32.0819   32.8284   58.4007 H   0  0  0  0  0  0  0  0  0  0  0  0
   31.2169   31.8477   60.4839 H   0  0  0  0  0  0  0  0  0  0  0  0
   29.9081   34.8318   63.4899 H   0  0  0  0  0  0  0  0  0  0  0  0
   28.6196   31.3787   67.6565 H   0  0  0  0  0  0  0  0  0  0  0  0
   31.4163   35.7009   62.3573 H   0  0  0  0  0  0  0  0  0  0  0  0
   32.2714   36.6631   60.2615 H   0  0  0  0  0  0  0  0  0  0  0  0
   33.5171   35.7752   55.7606 H   0  0  0  0  0  0  0  0  0  0  0  0
   34.3737   37.0311   53.8248 H   0  0  0  0  0  0  0  0  0  0  0  0
  1  2  1  0  0  0  0
  1 25  1  0  0  0  0
  1 26  1  0  0  0  0
  1 27  1  0  0  0  0
  2  3  1  0  0  0  0
  3 24  2  0  0  0  0
  3  4  1  0  0  0  0
  4  5  2  0  0  0  0
  4 28  1  0  0  0  0
  5  6  1  0  0  0  0
  5 29  1  0  0  0  0
  6  7  1  0  0  0  0
  6 23  2  0  0  0  0
  7  8  1  0  0  0  0
  8  9  1  0  0  0  0
  8 30  1  0  0  0  0
  8 31  1  0  0  0  0
  9 22  2  0  0  0  0
  9 10  1  0  0  0  0
 10 11  2  0  0  0  0
 10 32  1  0  0  0  0
 11 12  1  0  0  0  0
 11 33  1  0  0  0  0
 12 13  1  0  0  0  0
 12 21  2  0  0  0  0
 13 14  2  0  0  0  0
 13 15  1  0  0  0  0
 15 16  1  0  0  0  0
 15 34  1  0  0  0  0
 16 20  1  0  0  0  0
 16 17  2  0  0  0  0
 17 18  1  0  0  0  0
 18 19  2  0  0  0  0
 19 20  1  0  0  0  0
 19 35  1  0  0  0  0
 21 22  1  0  0  0  0
 21 36  1  0  0  0  0
 22 37  1  0  0  0  0
 23 24  1  0  0  0  0
 23 38  1  0  0  0  0
 24 39  1  0  0  0  0
M  END
$$$$
