ZINC000000038987      none
 OpenBabel11202420153D

 35 36  0  0  1  0  0  0  0  0999 V2000
   31.6251   33.7231   58.8445 C   0  0  0  0  0  0  0  0  0  0  0  0
   31.3457   34.8596   59.8299 C   0  0  2  0  0  0  0  0  0  0  0  0
   32.0476   35.6748   59.6539 H   0  0  0  0  0  0  0  0  0  0  0  0
   31.5082   34.3448   61.2647 C   0  0  0  0  0  0  0  0  0  0  0  0
   31.0560   35.3966   62.1892 N   0  0  0  0  0  0  0  0  0  0  0  0
   31.8268   35.7906   63.2221 C   0  0  0  0  0  0  0  0  0  0  0  0
   32.9132   35.2756   63.4008 O   0  0  0  0  0  0  0  0  0  0  0  0
   31.3510   36.8495   64.1378 C   0  0  0  0  0  0  0  0  0  0  0  0
   31.6429   38.1883   63.8730 C   0  0  0  0  0  0  0  0  0  0  0  0
   31.1919   39.1718   64.7289 C   0  0  0  0  0  0  0  0  0  0  0  0
   30.4607   38.8324   65.8534 C   0  0  0  0  0  0  0  0  0  0  0  0
   29.9852   39.8924   66.7706 N   0  0  0  0  0  0  0  0  0  0  0  0
   30.2379   41.0603   66.5348 O   0  0  0  0  0  0  0  0  0  0  0  0
   29.3413   39.5967   67.7614 O   0  0  0  0  0  0  0  0  0  0  0  0
   30.1723   37.5066   66.1245 C   0  0  0  0  0  0  0  0  0  0  0  0
   30.6129   36.5139   65.2739 C   0  0  0  0  0  0  0  0  0  0  0  0
   29.7346   36.0008   61.9562 C   0  0  0  0  0  0  0  0  0  0  0  0
   29.6608   36.4388   60.4846 C   0  0  1  0  0  0  0  0  0  0  0  0
   28.6468   36.7649   60.2535 H   0  0  0  0  0  0  0  0  0  0  0  0
   30.6366   37.5915   60.2401 C   0  0  0  0  0  0  0  0  0  0  0  0
   30.0090   35.3329   59.6483 O   0  0  0  0  0  0  0  0  0  0  0  0
   30.9216   32.9091   59.0198 H   0  0  0  0  0  0  0  0  0  0  0  0
   31.5093   34.0899   57.8245 H   0  0  0  0  0  0  0  0  0  0  0  0
   32.6431   33.3607   58.9869 H   0  0  0  0  0  0  0  0  0  0  0  0
   32.5563   34.1142   61.4554 H   0  0  0  0  0  0  0  0  0  0  0  0
   30.9039   33.4485   61.4044 H   0  0  0  0  0  0  0  0  0  0  0  0
   32.2173   38.4542   62.9978 H   0  0  0  0  0  0  0  0  0  0  0  0
   31.4139   40.2085   64.5232 H   0  0  0  0  0  0  0  0  0  0  0  0
   29.6013   37.2485   67.0041 H   0  0  0  0  0  0  0  0  0  0  0  0
   30.3868   35.4794   65.4865 H   0  0  0  0  0  0  0  0  0  0  0  0
   28.9543   35.2686   62.1638 H   0  0  0  0  0  0  0  0  0  0  0  0
   29.6078   36.8674   62.6051 H   0  0  0  0  0  0  0  0  0  0  0  0
   30.5843   37.8964   59.1949 H   0  0  0  0  0  0  0  0  0  0  0  0
   30.3707   38.4343   60.8780 H   0  0  0  0  0  0  0  0  0  0  0  0
   31.6502   37.2652   60.4731 H   0  0  0  0  0  0  0  0  0  0  0  0
  1  2  1  0  0  0  0
  1 22  1  0  0  0  0
  1 23  1  0  0  0  0
  1 24  1  0  0  0  0
  2  3  1  6  0  0  0
  2 21  1  0  0  0  0
  2  4  1  0  0  0  0
  4  5  1  0  0  0  0
  4 25  1  0  0  0  0
  4 26  1  0  0  0  0
  5  6  1  0  0  0  0
  5 17  1  0  0  0  0
  6  7  2  0  0  0  0
  6  8  1  0  0  0  0
  8 16  2  0  0  0  0
  8  9  1  0  0  0  0
  9 10  2  0  0  0  0
  9 27  1  0  0  0  0
 10 11  1  0  0  0  0
 10 28  1  0  0  0  0
 11 12  1  0  0  0  0
 11 15  2  0  0  0  0
 12 13  2  0  0  0  0
 12 14  2  0  0  0  0
 15 16  1  0  0  0  0
 15 29  1  0  0  0  0
 16 30  1  0  0  0  0
 17 18  1  0  0  0  0
 17 31  1  0  0  0  0
 17 32  1  0  0  0  0
 18 19  1  6  0  0  0
 18 20  1  0  0  0  0
 18 21  1  0  0  0  0
 20 33  1  0  0  0  0
 20 34  1  0  0  0  0
 20 35  1  0  0  0  0
M  END
$$$$
