ZINC000000027451      none
 OpenBabel11202420153D

 28 28  0  0  0  0  0  0  0  0999 V2000
   29.2396   36.3863   60.4481 C   0  0  0  0  0  0  0  0  0  0  0  0
   30.2602   36.8205   61.1454 C   0  0  0  0  0  0  0  0  0  0  0  0
   30.0312   37.5214   62.4596 C   0  0  0  0  0  0  0  0  0  0  0  0
   30.6979   36.7752   63.5351 N   0  3  0  0  0  0  0  0  0  0  0  0
   32.1395   36.7057   63.2619 C   0  0  0  0  0  0  0  0  0  0  0  0
   30.1462   35.4156   63.6026 C   0  0  0  0  0  0  0  0  0  0  0  0
   30.4855   37.4254   64.7544 C   0  0  0  0  0  0  0  0  0  0  0  0
   29.7404   38.5881   64.7973 C   0  0  0  0  0  0  0  0  0  0  0  0
   29.5255   39.2286   66.0035 C   0  0  0  0  0  0  0  0  0  0  0  0
   30.0604   38.7108   67.1690 C   0  0  0  0  0  0  0  0  0  0  0  0
   30.8109   37.5519   67.1304 C   0  0  0  0  0  0  0  0  0  0  0  0
   31.0276   36.9069   65.9212 C   0  0  0  0  0  0  0  0  0  0  0  0
   31.7653   35.7663   65.8809 O   0  5  0  0  0  0  0  0  0  0  0  0
   28.2342   36.5307   60.8151 H   0  0  0  0  0  0  0  0  0  0  0  0
   29.4037   35.8840   59.5061 H   0  0  0  0  0  0  0  0  0  0  0  0
   31.2655   36.6762   60.7782 H   0  0  0  0  0  0  0  0  0  0  0  0
   28.9614   37.5730   62.6624 H   0  0  0  0  0  0  0  0  0  0  0  0
   30.4407   38.5303   62.4095 H   0  0  0  0  0  0  0  0  0  0  0  0
   32.6344   36.1521   64.0599 H   0  0  0  0  0  0  0  0  0  0  0  0
   32.3053   36.1987   62.3112 H   0  0  0  0  0  0  0  0  0  0  0  0
   32.5490   37.7146   63.2118 H   0  0  0  0  0  0  0  0  0  0  0  0
   29.0764   35.4672   63.8053 H   0  0  0  0  0  0  0  0  0  0  0  0
   30.3118   34.9086   62.6520 H   0  0  0  0  0  0  0  0  0  0  0  0
   30.6409   34.8618   64.4006 H   0  0  0  0  0  0  0  0  0  0  0  0
   29.3215   38.9944   63.8886 H   0  0  0  0  0  0  0  0  0  0  0  0
   28.9392   40.1350   66.0356 H   0  0  0  0  0  0  0  0  0  0  0  0
   29.8914   39.2133   68.1099 H   0  0  0  0  0  0  0  0  0  0  0  0
   31.2283   37.1479   68.0409 H   0  0  0  0  0  0  0  0  0  0  0  0
  1  2  2  0  0  0  0
  1 14  1  0  0  0  0
  1 15  1  0  0  0  0
  2  3  1  0  0  0  0
  2 16  1  0  0  0  0
  3  4  1  0  0  0  0
  3 17  1  0  0  0  0
  3 18  1  0  0  0  0
  4  5  1  0  0  0  0
  4  6  1  0  0  0  0
  4  7  1  0  0  0  0
  5 19  1  0  0  0  0
  5 20  1  0  0  0  0
  5 21  1  0  0  0  0
  6 22  1  0  0  0  0
  6 23  1  0  0  0  0
  6 24  1  0  0  0  0
  7 12  2  0  0  0  0
  7  8  1  0  0  0  0
  8  9  2  0  0  0  0
  8 25  1  0  0  0  0
  9 10  1  0  0  0  0
  9 26  1  0  0  0  0
 10 11  2  0  0  0  0
 10 27  1  0  0  0  0
 11 12  1  0  0  0  0
 11 28  1  0  0  0  0
 12 13  1  0  0  0  0
M  CHG  2   4   1  13  -1
M  END
$$$$
