ZINC000000004044      none
 OpenBabel11202420153D

 27 28  0  0  0  0  0  0  0  0999 V2000
   29.3505   36.4795   60.0825 C   0  0  0  0  0  0  0  0  0  0  0  0
   30.3000   36.5954   61.2471 C   0  0  0  0  0  0  0  0  0  0  0  0
   29.8240   36.4568   62.4992 N   0  0  0  0  0  0  0  0  0  0  0  0
   28.8788   36.2839   62.6326 H   0  0  0  0  0  0  0  0  0  0  0  0
   30.6357   36.5531   63.5694 C   0  0  0  0  0  0  0  0  0  0  0  0
   30.1849   36.4248   64.6945 O   0  0  0  0  0  0  0  0  0  0  0  0
   32.0631   36.8132   63.3730 C   0  0  0  0  0  0  0  0  0  0  0  0
   32.9486   36.9203   64.4934 C   0  0  0  0  0  0  0  0  0  0  0  0
   33.6510   37.0053   65.3822 N   0  0  0  0  0  0  0  0  0  0  0  0
   32.5406   36.9484   62.0738 C   0  0  0  0  0  0  0  0  0  0  0  0
   31.6335   36.8410   61.0050 C   0  0  0  0  0  0  0  0  0  0  0  0
   32.1156   36.9870   59.6105 C   0  0  0  0  0  0  0  0  0  0  0  0
   32.5455   35.8654   58.9006 C   0  0  0  0  0  0  0  0  0  0  0  0
   32.9987   36.0002   57.6082 C   0  0  0  0  0  0  0  0  0  0  0  0
   33.0167   37.2599   57.0024 C   0  0  0  0  0  0  0  0  0  0  0  0
   33.4828   37.4010   55.6558 C   0  0  0  0  0  0  0  0  0  0  0  0
   33.8526   37.5130   54.5875 N   0  0  0  0  0  0  0  0  0  0  0  0
   32.5798   38.3819   57.7127 C   0  0  0  0  0  0  0  0  0  0  0  0
   32.1326   38.2448   59.0070 C   0  0  0  0  0  0  0  0  0  0  0  0
   29.2998   35.4404   59.7572 H   0  0  0  0  0  0  0  0  0  0  0  0
   28.3589   36.8135   60.3877 H   0  0  0  0  0  0  0  0  0  0  0  0
   29.7062   37.1006   59.2605 H   0  0  0  0  0  0  0  0  0  0  0  0
   33.5880   37.1362   61.8895 H   0  0  0  0  0  0  0  0  0  0  0  0
   32.5272   34.8915   59.3673 H   0  0  0  0  0  0  0  0  0  0  0  0
   33.3359   35.1326   57.0605 H   0  0  0  0  0  0  0  0  0  0  0  0
   32.5930   39.3557   57.2458 H   0  0  0  0  0  0  0  0  0  0  0  0
   31.7950   39.1116   59.5559 H   0  0  0  0  0  0  0  0  0  0  0  0
  1  2  1  0  0  0  0
  1 20  1  0  0  0  0
  1 21  1  0  0  0  0
  1 22  1  0  0  0  0
  2 11  2  0  0  0  0
  2  3  1  0  0  0  0
  3  4  1  0  0  0  0
  3  5  1  0  0  0  0
  5  6  2  0  0  0  0
  5  7  1  0  0  0  0
  7  8  1  0  0  0  0
  7 10  2  0  0  0  0
  8  9  3  0  0  0  0
 10 11  1  0  0  0  0
 10 23  1  0  0  0  0
 11 12  1  0  0  0  0
 12 19  2  0  0  0  0
 12 13  1  0  0  0  0
 13 14  2  0  0  0  0
 13 24  1  0  0  0  0
 14 15  1  0  0  0  0
 14 25  1  0  0  0  0
 15 16  1  0  0  0  0
 15 18  2  0  0  0  0
 16 17  3  0  0  0  0
 18 19  1  0  0  0  0
 18 26  1  0  0  0  0
 19 27  1  0  0  0  0
M  END
$$$$
