ZINC000000033090      none
 OpenBabel11202420153D

 39 42  0  0  0  0  0  0  0  0999 V2000
   31.4141   39.7474   66.0295 C   0  0  0  0  0  0  0  0  0  0  0  0
   30.6717   39.8112   64.8101 O   0  0  0  0  0  0  0  0  0  0  0  0
   30.9962   38.9203   63.8470 C   0  0  0  0  0  0  0  0  0  0  0  0
   30.3060   38.9309   62.6275 C   0  0  0  0  0  0  0  0  0  0  0  0
   30.6256   38.0395   61.6533 C   0  0  0  0  0  0  0  0  0  0  0  0
   31.6579   37.0927   61.8758 C   0  0  0  0  0  0  0  0  0  0  0  0
   31.9904   36.1666   60.8804 C   0  0  0  0  0  0  0  0  0  0  0  0
   32.4359   36.6154   59.6206 C   0  0  0  0  0  0  0  0  0  0  0  0
   32.7386   38.0545   59.2357 C   0  0  0  0  0  0  0  0  0  0  0  0
   33.1817   38.0187   57.7961 C   0  0  0  0  0  0  0  0  0  0  0  0
   33.5962   38.9344   56.8425 C   0  0  0  0  0  0  0  0  0  0  0  0
   33.9284   38.4976   55.5666 C   0  0  0  0  0  0  0  0  0  0  0  0
   33.8632   37.1624   55.1971 C   0  0  0  0  0  0  0  0  0  0  0  0
   33.4451   36.2186   56.1490 C   0  0  0  0  0  0  0  0  0  0  0  0
   33.3328   34.8364   55.9129 C   0  0  0  0  0  0  0  0  0  0  0  0
   33.6715   34.2845   54.5654 N   0  0  0  0  0  0  0  0  0  0  0  0
   34.0731   35.0914   53.6052 O   0  0  0  0  0  0  0  0  0  0  0  0
   33.5683   32.9912   54.3386 O   0  0  0  0  0  0  0  0  0  0  0  0
   32.9090   33.9773   56.9248 C   0  0  0  0  0  0  0  0  0  0  0  0
   32.5797   34.3951   58.1842 C   0  0  0  0  0  0  0  0  0  0  0  0
   32.6718   35.8247   58.5055 C   0  0  0  0  0  0  0  0  0  0  0  0
   33.1193   36.6969   57.4232 C   0  0  0  0  0  0  0  0  0  0  0  0
   32.3549   37.0933   63.1112 C   0  0  0  0  0  0  0  0  0  0  0  0
   32.0211   37.9920   64.0737 C   0  0  0  0  0  0  0  0  0  0  0  0
   31.2838   38.7650   66.4833 H   0  0  0  0  0  0  0  0  0  0  0  0
   32.4708   39.9139   65.8205 H   0  0  0  0  0  0  0  0  0  0  0  0
   31.0539   40.5148   66.7146 H   0  0  0  0  0  0  0  0  0  0  0  0
   29.5177   39.6502   62.4613 H   0  0  0  0  0  0  0  0  0  0  0  0
   30.0923   38.0489   60.7143 H   0  0  0  0  0  0  0  0  0  0  0  0
   31.9058   35.1081   61.0777 H   0  0  0  0  0  0  0  0  0  0  0  0
   31.8429   38.6667   59.3395 H   0  0  0  0  0  0  0  0  0  0  0  0
   33.5383   38.4498   59.8620 H   0  0  0  0  0  0  0  0  0  0  0  0
   33.6603   39.9836   57.0902 H   0  0  0  0  0  0  0  0  0  0  0  0
   34.2496   39.2245   54.8353 H   0  0  0  0  0  0  0  0  0  0  0  0
   34.1282   36.8546   54.1964 H   0  0  0  0  0  0  0  0  0  0  0  0
   32.8367   32.9231   56.7019 H   0  0  0  0  0  0  0  0  0  0  0  0
   32.2570   33.6846   58.9309 H   0  0  0  0  0  0  0  0  0  0  0  0
   33.1451   36.3786   63.2878 H   0  0  0  0  0  0  0  0  0  0  0  0
   32.5476   37.9912   65.0168 H   0  0  0  0  0  0  0  0  0  0  0  0
  1  2  1  0  0  0  0
  1 25  1  0  0  0  0
  1 26  1  0  0  0  0
  1 27  1  0  0  0  0
  2  3  1  0  0  0  0
  3 24  2  0  0  0  0
  3  4  1  0  0  0  0
  4  5  2  0  0  0  0
  4 28  1  0  0  0  0
  5  6  1  0  0  0  0
  5 29  1  0  0  0  0
  6  7  1  0  0  0  0
  6 23  2  0  0  0  0
  7  8  2  0  0  0  0
  7 30  1  0  0  0  0
  8 21  1  0  0  0  0
  8  9  1  0  0  0  0
  9 10  1  0  0  0  0
  9 31  1  0  0  0  0
  9 32  1  0  0  0  0
 10 22  2  0  0  0  0
 10 11  1  0  0  0  0
 11 12  2  0  0  0  0
 11 33  1  0  0  0  0
 12 13  1  0  0  0  0
 12 34  1  0  0  0  0
 13 14  2  0  0  0  0
 13 35  1  0  0  0  0
 14 22  1  0  0  0  0
 14 15  1  0  0  0  0
 15 16  1  0  0  0  0
 15 19  2  0  0  0  0
 16 17  2  0  0  0  0
 16 18  2  0  0  0  0
 19 20  1  0  0  0  0
 19 36  1  0  0  0  0
 20 21  2  0  0  0  0
 20 37  1  0  0  0  0
 21 22  1  0  0  0  0
 23 24  1  0  0  0  0
 23 38  1  0  0  0  0
 24 39  1  0  0  0  0
M  END
$$$$
