ZINC000000001037      none
 OpenBabel11202420153D

 43 44  0  0  1  0  0  0  0  0999 V2000
   28.9322   38.8799   68.2724 C   0  0  0  0  0  0  0  0  0  0  0  0
   28.0846   39.3734   67.0983 C   0  0  0  0  0  0  0  0  0  0  0  0
   26.8909   40.1692   67.6298 C   0  0  0  0  0  0  0  0  0  0  0  0
   28.9351   40.2707   66.1969 C   0  0  0  0  0  0  0  0  0  0  0  0
   30.1108   39.4868   65.6732 C   0  0  0  0  0  0  0  0  0  0  0  0
   31.2367   39.8504   65.9183 O   0  0  0  0  0  0  0  0  0  0  0  0
   29.9072   38.3847   64.9345 O   0  0  0  0  0  0  0  0  0  0  0  0
   30.9154   38.0617   63.9409 C   0  0  2  0  0  0  0  0  0  0  0  0
   31.7142   38.8032   63.9562 H   0  0  0  0  0  0  0  0  0  0  0  0
   30.2798   37.9833   62.5340 C   0  0  0  0  0  0  0  0  0  0  0  0
   30.5304   36.5161   62.0693 C   0  0  1  0  0  0  0  0  0  0  0  0
   29.8856   36.1529   61.2690 H   0  0  0  0  0  0  0  0  0  0  0  0
   32.0634   36.4509   61.7921 C   0  0  0  0  0  0  0  0  0  0  0  0
   32.7174   36.5352   63.1902 C   0  0  0  0  0  0  0  0  0  0  0  0
   31.4902   36.6345   64.1938 C   0  0  1  0  0  0  0  0  0  0  0  0
   31.7714   36.2758   65.6543 C   0  0  0  0  0  0  0  0  0  0  0  0
   30.4301   35.7568   63.4393 C   0  0  0  0  0  0  0  0  0  0  0  0
   29.0376   35.8776   64.0617 C   0  0  0  0  0  0  0  0  0  0  0  0
   30.8735   34.2973   63.3203 C   0  0  0  0  0  0  0  0  0  0  0  0
   29.2916   39.7346   68.8457 H   0  0  0  0  0  0  0  0  0  0  0  0
   28.3263   38.2407   68.9146 H   0  0  0  0  0  0  0  0  0  0  0  0
   29.7826   38.3129   67.8937 H   0  0  0  0  0  0  0  0  0  0  0  0
   27.7252   38.5187   66.5251 H   0  0  0  0  0  0  0  0  0  0  0  0
   26.2850   39.5299   68.2720 H   0  0  0  0  0  0  0  0  0  0  0  0
   27.2503   41.0239   68.2030 H   0  0  0  0  0  0  0  0  0  0  0  0
   26.2870   40.5207   66.7934 H   0  0  0  0  0  0  0  0  0  0  0  0
   29.2945   41.1254   66.7701 H   0  0  0  0  0  0  0  0  0  0  0  0
   28.3311   40.6223   65.3604 H   0  0  0  0  0  0  0  0  0  0  0  0
   29.2104   38.1872   62.5882 H   0  0  0  0  0  0  0  0  0  0  0  0
   30.7661   38.6862   61.8576 H   0  0  0  0  0  0  0  0  0  0  0  0
   32.3223   35.5094   61.3076 H   0  0  0  0  0  0  0  0  0  0  0  0
   32.3743   37.2945   61.1757 H   0  0  0  0  0  0  0  0  0  0  0  0
   33.2977   35.6351   63.3932 H   0  0  0  0  0  0  0  0  0  0  0  0
   33.3514   37.4191   63.2605 H   0  0  0  0  0  0  0  0  0  0  0  0
   30.8499   36.3538   66.2314 H   0  0  0  0  0  0  0  0  0  0  0  0
   32.1506   35.2555   65.7114 H   0  0  0  0  0  0  0  0  0  0  0  0
   32.5138   36.9627   66.0608 H   0  0  0  0  0  0  0  0  0  0  0  0
   28.3012   35.4301   63.3943 H   0  0  0  0  0  0  0  0  0  0  0  0
   29.0219   35.3591   65.0203 H   0  0  0  0  0  0  0  0  0  0  0  0
   28.7978   36.9300   64.2140 H   0  0  0  0  0  0  0  0  0  0  0  0
   31.9017   34.2581   62.9604 H   0  0  0  0  0  0  0  0  0  0  0  0
   30.8120   33.8181   64.2974 H   0  0  0  0  0  0  0  0  0  0  0  0
   30.2228   33.7760   62.6183 H   0  0  0  0  0  0  0  0  0  0  0  0
  1  2  1  0  0  0  0
  1 20  1  0  0  0  0
  1 21  1  0  0  0  0
  1 22  1  0  0  0  0
  2  3  1  0  0  0  0
  2  4  1  0  0  0  0
  2 23  1  0  0  0  0
  3 24  1  0  0  0  0
  3 25  1  0  0  0  0
  3 26  1  0  0  0  0
  4  5  1  0  0  0  0
  4 27  1  0  0  0  0
  4 28  1  0  0  0  0
  5  6  2  0  0  0  0
  5  7  1  0  0  0  0
  7  8  1  0  0  0  0
  8  9  1  1  0  0  0
  8 15  1  0  0  0  0
  8 10  1  0  0  0  0
 10 11  1  0  0  0  0
 10 29  1  0  0  0  0
 10 30  1  0  0  0  0
 11 12  1  6  0  0  0
 11 17  1  0  0  0  0
 11 13  1  0  0  0  0
 13 14  1  0  0  0  0
 13 31  1  0  0  0  0
 13 32  1  0  0  0  0
 14 15  1  0  0  0  0
 14 33  1  0  0  0  0
 14 34  1  0  0  0  0
 15 16  1  1  0  0  0
 15 17  1  0  0  0  0
 16 35  1  0  0  0  0
 16 36  1  0  0  0  0
 16 37  1  0  0  0  0
 17 18  1  0  0  0  0
 17 19  1  0  0  0  0
 18 38  1  0  0  0  0
 18 39  1  0  0  0  0
 18 40  1  0  0  0  0
 19 41  1  0  0  0  0
 19 42  1  0  0  0  0
 19 43  1  0  0  0  0
M  END
$$$$
