ZINC000000049843      none
 OpenBabel11202420153D

 25 26  0  0  1  0  0  0  0  0999 V2000
   28.0823   34.8399   63.9758 N   0  0  0  0  0  0  0  0  0  0  0  0
   28.7959   35.5022   64.5612 C   0  0  0  0  0  0  0  0  0  0  0  0
   29.7204   36.3605   65.3197 C   0  0  0  0  0  0  0  0  0  0  0  0
   29.7937   36.0932   66.7654 C   0  0  0  0  0  0  0  0  0  0  0  0
   29.8503   35.8868   67.8811 N   0  0  0  0  0  0  0  0  0  0  0  0
   29.8741   37.8120   64.8611 C   0  0  1  0  0  0  0  0  0  0  0  0
   29.2905   38.1314   63.9976 H   0  0  0  0  0  0  0  0  0  0  0  0
   30.0892   38.8589   65.9235 C   0  0  0  0  0  0  0  0  0  0  0  0
   30.7984   38.5604   67.0301 N   0  0  0  0  0  0  0  0  0  0  0  0
   29.6241   39.9701   65.7828 O   0  0  0  0  0  0  0  0  0  0  0  0
   31.0040   36.8093   64.6183 C   0  0  2  0  0  0  0  0  0  0  0  0
   31.9026   36.9066   65.2274 H   0  0  0  0  0  0  0  0  0  0  0  0
   31.2252   36.3393   63.2037 C   0  0  0  0  0  0  0  0  0  0  0  0
   31.8965   35.1546   62.9660 C   0  0  0  0  0  0  0  0  0  0  0  0
   32.0960   34.7215   61.6686 C   0  0  0  0  0  0  0  0  0  0  0  0
   31.6319   35.4776   60.6084 C   0  0  0  0  0  0  0  0  0  0  0  0
   30.9649   36.6649   60.8459 C   0  0  0  0  0  0  0  0  0  0  0  0
   30.7619   37.0959   62.1435 C   0  0  0  0  0  0  0  0  0  0  0  0
   31.1703   37.6716   67.1426 H   0  0  0  0  0  0  0  0  0  0  0  0
   30.9367   39.2342   67.7139 H   0  0  0  0  0  0  0  0  0  0  0  0
   32.2624   34.5657   63.7942 H   0  0  0  0  0  0  0  0  0  0  0  0
   32.6175   33.7941   61.4829 H   0  0  0  0  0  0  0  0  0  0  0  0
   31.7909   35.1409   59.5946 H   0  0  0  0  0  0  0  0  0  0  0  0
   30.6027   37.2557   60.0177 H   0  0  0  0  0  0  0  0  0  0  0  0
   30.2411   38.0237   62.3291 H   0  0  0  0  0  0  0  0  0  0  0  0
  1  2  3  0  0  0  0
  2  3  1  0  0  0  0
  3 11  1  0  0  0  0
  3  4  1  0  0  0  0
  3  6  1  0  0  0  0
  4  5  3  0  0  0  0
  6  7  1  6  0  0  0
  6  8  1  0  0  0  0
  6 11  1  0  0  0  0
  8  9  1  0  0  0  0
  8 10  2  0  0  0  0
  9 19  1  0  0  0  0
  9 20  1  0  0  0  0
 11 12  1  1  0  0  0
 11 13  1  0  0  0  0
 13 18  2  0  0  0  0
 13 14  1  0  0  0  0
 14 15  2  0  0  0  0
 14 21  1  0  0  0  0
 15 16  1  0  0  0  0
 15 22  1  0  0  0  0
 16 17  2  0  0  0  0
 16 23  1  0  0  0  0
 17 18  1  0  0  0  0
 17 24  1  0  0  0  0
 18 25  1  0  0  0  0
M  END
$$$$
