ZINC000000049187      none
 OpenBabel11202420153D

 40 43  0  0  0  0  0  0  0  0999 V2000
   29.6710   35.4717   63.0444 O   0  0  0  0  0  0  0  0  0  0  0  0
   30.1908   36.0924   62.1474 C   0  0  0  0  0  0  0  0  0  0  0  0
   30.9698   35.3660   61.0812 C   0  0  0  0  0  0  0  0  0  0  0  0
   32.0084   36.2149   60.5885 O   0  0  0  0  0  0  0  0  0  0  0  0
   32.3856   36.0408   59.2947 C   0  0  0  0  0  0  0  0  0  0  0  0
   32.2785   34.7753   58.7089 C   0  0  0  0  0  0  0  0  0  0  0  0
   32.6532   34.5688   57.4181 C   0  0  0  0  0  0  0  0  0  0  0  0
   33.1510   35.6405   56.6564 C   0  0  0  0  0  0  0  0  0  0  0  0
   33.5466   35.4623   55.3199 C   0  0  0  0  0  0  0  0  0  0  0  0
   34.0250   36.5217   54.6119 C   0  0  0  0  0  0  0  0  0  0  0  0
   34.1286   37.7847   55.1921 C   0  0  0  0  0  0  0  0  0  0  0  0
   33.7542   37.9952   56.4834 C   0  0  0  0  0  0  0  0  0  0  0  0
   33.2556   36.9250   57.2465 C   0  0  0  0  0  0  0  0  0  0  0  0
   32.8599   37.1049   58.5820 C   0  0  0  0  0  0  0  0  0  0  0  0
   30.0744   37.4294   62.1005 O   0  0  0  0  0  0  0  0  0  0  0  0
   29.9518   38.0795   63.2865 C   0  0  0  0  0  0  0  0  0  0  0  0
   30.9627   37.9745   64.2399 C   0  0  0  0  0  0  0  0  0  0  0  0
   30.8570   38.6267   65.4341 C   0  0  0  0  0  0  0  0  0  0  0  0
   29.7204   39.3960   65.7081 C   0  0  0  0  0  0  0  0  0  0  0  0
   29.5773   40.1015   66.9836 C   0  0  0  0  0  0  0  0  0  0  0  0
   28.4512   40.8326   67.1896 C   0  0  0  0  0  0  0  0  0  0  0  0
   27.4620   40.8945   66.1864 C   0  0  0  0  0  0  0  0  0  0  0  0
   26.4571   41.5537   66.3839 O   0  0  0  0  0  0  0  0  0  0  0  0
   27.5992   40.2451   65.0197 O   0  0  0  0  0  0  0  0  0  0  0  0
   28.6938   39.5012   64.7517 C   0  0  0  0  0  0  0  0  0  0  0  0
   28.8204   38.8367   63.5408 C   0  0  0  0  0  0  0  0  0  0  0  0
   30.3017   35.0968   60.2630 H   0  0  0  0  0  0  0  0  0  0  0  0
   31.4089   34.4625   61.5041 H   0  0  0  0  0  0  0  0  0  0  0  0
   31.8968   33.9497   59.2911 H   0  0  0  0  0  0  0  0  0  0  0  0
   32.5684   33.5853   56.9798 H   0  0  0  0  0  0  0  0  0  0  0  0
   33.4721   34.4894   54.8570 H   0  0  0  0  0  0  0  0  0  0  0  0
   34.3287   36.3815   53.5850 H   0  0  0  0  0  0  0  0  0  0  0  0
   34.5113   38.6086   54.6081 H   0  0  0  0  0  0  0  0  0  0  0  0
   33.8392   38.9796   56.9196 H   0  0  0  0  0  0  0  0  0  0  0  0
   32.9346   38.0782   59.0442 H   0  0  0  0  0  0  0  0  0  0  0  0
   31.8376   37.3770   64.0304 H   0  0  0  0  0  0  0  0  0  0  0  0
   31.6459   38.5455   66.1672 H   0  0  0  0  0  0  0  0  0  0  0  0
   30.3460   40.0420   67.7399 H   0  0  0  0  0  0  0  0  0  0  0  0
   28.3137   41.3649   68.1192 H   0  0  0  0  0  0  0  0  0  0  0  0
   28.0391   38.9093   62.7988 H   0  0  0  0  0  0  0  0  0  0  0  0
  1  2  2  0  0  0  0
  2  3  1  0  0  0  0
  2 15  1  0  0  0  0
  3  4  1  0  0  0  0
  3 27  1  0  0  0  0
  3 28  1  0  0  0  0
  4  5  1  0  0  0  0
  5 14  2  0  0  0  0
  5  6  1  0  0  0  0
  6  7  2  0  0  0  0
  6 29  1  0  0  0  0
  7  8  1  0  0  0  0
  7 30  1  0  0  0  0
  8 13  2  0  0  0  0
  8  9  1  0  0  0  0
  9 10  2  0  0  0  0
  9 31  1  0  0  0  0
 10 11  1  0  0  0  0
 10 32  1  0  0  0  0
 11 12  2  0  0  0  0
 11 33  1  0  0  0  0
 12 13  1  0  0  0  0
 12 34  1  0  0  0  0
 13 14  1  0  0  0  0
 14 35  1  0  0  0  0
 15 16  1  0  0  0  0
 16 26  2  0  0  0  0
 16 17  1  0  0  0  0
 17 18  2  0  0  0  0
 17 36  1  0  0  0  0
 18 19  1  0  0  0  0
 18 37  1  0  0  0  0
 19 25  2  0  0  0  0
 19 20  1  0  0  0  0
 20 21  2  0  0  0  0
 20 38  1  0  0  0  0
 21 22  1  0  0  0  0
 21 39  1  0  0  0  0
 22 23  2  0  0  0  0
 22 24  1  0  0  0  0
 24 25  1  0  0  0  0
 25 26  1  0  0  0  0
 26 40  1  0  0  0  0
M  END
$$$$
