ZINC000000001621      none
 OpenBabel11202420153D

 18 18  0  0  1  0  0  0  0  0999 V2000
   29.7997   34.4220   64.2130 Cl  0  0  0  0  0  0  0  0  0  0  0  0
   31.1528   35.2173   63.3256 C   0  0  2  0  0  0  0  0  0  0  0  0
   31.4203   36.5959   63.9328 C   0  0  2  0  0  0  0  0  0  0  0  0
   31.8673   36.4112   65.6698 Cl  0  0  0  0  0  0  0  0  0  0  0  0
   30.1603   37.4564   63.8191 C   0  0  1  0  0  0  0  0  0  0  0  0
   30.4755   39.0810   64.5347 Cl  0  0  0  0  0  0  0  0  0  0  0  0
   29.7811   37.6132   62.3452 C   0  0  1  0  0  0  0  0  0  0  0  0
   31.1341   38.4086   61.4578 Cl  0  0  0  0  0  0  0  0  0  0  0  0
   29.5136   36.2346   61.7380 C   0  0  1  0  0  0  0  0  0  0  0  0
   29.0667   36.4194   60.0010 Cl  0  0  0  0  0  0  0  0  0  0  0  0
   30.7735   35.3741   61.8516 C   0  0  1  0  0  0  0  0  0  0  0  0
   32.1266   36.1695   60.9643 Cl  0  0  0  0  0  0  0  0  0  0  0  0
   32.0504   34.6042   63.4066 H   0  0  0  0  0  0  0  0  0  0  0  0
   32.2383   37.0768   63.3964 H   0  0  0  0  0  0  0  0  0  0  0  0
   29.3423   36.9757   64.3556 H   0  0  0  0  0  0  0  0  0  0  0  0
   28.8835   38.2263   62.2643 H   0  0  0  0  0  0  0  0  0  0  0  0
   28.6957   35.7537   62.2745 H   0  0  0  0  0  0  0  0  0  0  0  0
   30.5831   34.3920   61.4190 H   0  0  0  0  0  0  0  0  0  0  0  0
  1  2  1  0  0  0  0
  2 11  1  0  0  0  0
  2  3  1  0  0  0  0
  2 13  1  1  0  0  0
  3  4  1  0  0  0  0
  3  5  1  0  0  0  0
  3 14  1  6  0  0  0
  5  6  1  0  0  0  0
  5  7  1  0  0  0  0
  5 15  1  1  0  0  0
  7  8  1  0  0  0  0
  7  9  1  0  0  0  0
  7 16  1  6  0  0  0
  9 10  1  0  0  0  0
  9 11  1  0  0  0  0
  9 17  1  1  0  0  0
 11 12  1  0  0  0  0
 11 18  1  6  0  0  0
M  END
$$$$
