ZINC000000035298      none
 OpenBabel11202420153D

 38 41  0  0  1  0  0  0  0  0999 V2000
   35.0924   31.8040   55.2542 C   0  0  0  0  0  0  0  0  0  0  0  0
   34.3609   32.9417   54.5895 C   0  0  0  0  0  0  0  0  0  0  0  0
   33.7224   32.7435   53.5832 O   0  0  0  0  0  0  0  0  0  0  0  0
   34.4188   34.1753   55.1155 O   0  0  0  0  0  0  0  0  0  0  0  0
   33.1615   34.7803   55.5173 C   0  0  1  0  0  0  0  0  0  0  0  0
   33.3762   36.1911   56.0016 C   0  0  0  0  0  0  0  0  0  0  0  0
   33.9285   37.1298   55.1326 C   0  0  0  0  0  0  0  0  0  0  0  0
   34.1249   38.4146   55.5523 C   0  0  0  0  0  0  0  0  0  0  0  0
   33.7654   38.7441   56.8729 C   0  0  0  0  0  0  0  0  0  0  0  0
   33.9422   40.0430   57.3763 C   0  0  0  0  0  0  0  0  0  0  0  0
   33.5765   40.3235   58.6574 C   0  0  0  0  0  0  0  0  0  0  0  0
   33.0287   39.3383   59.4766 C   0  0  0  0  0  0  0  0  0  0  0  0
   32.8436   38.0694   59.0213 C   0  0  0  0  0  0  0  0  0  0  0  0
   33.2086   37.7407   57.7039 C   0  0  0  0  0  0  0  0  0  0  0  0
   33.0379   36.5028   57.2291 N   0  0  0  0  0  0  0  0  0  0  0  0
   32.1350   34.7430   54.3604 C   0  0  0  0  0  0  0  0  0  0  0  0
   31.4201   33.5206   54.6085 O   0  0  0  0  0  0  0  0  0  0  0  0
   31.4528   33.2429   55.9407 C   0  0  0  0  0  0  0  0  0  0  0  0
   30.6447   32.3971   56.6969 C   0  0  0  0  0  0  0  0  0  0  0  0
   30.8626   32.2561   58.0515 C   0  0  0  0  0  0  0  0  0  0  0  0
   31.8833   32.9532   58.6715 C   0  0  0  0  0  0  0  0  0  0  0  0
   32.6876   33.7988   57.9285 C   0  0  0  0  0  0  0  0  0  0  0  0
   32.4702   33.9431   56.5761 C   0  0  0  0  0  0  0  0  0  0  0  0
   34.7179   31.6752   56.2697 H   0  0  0  0  0  0  0  0  0  0  0  0
   34.9297   30.8871   54.6878 H   0  0  0  0  0  0  0  0  0  0  0  0
   36.1590   32.0271   55.2859 H   0  0  0  0  0  0  0  0  0  0  0  0
   34.1972   36.8428   54.1267 H   0  0  0  0  0  0  0  0  0  0  0  0
   34.5514   39.1552   54.8920 H   0  0  0  0  0  0  0  0  0  0  0  0
   34.3662   40.8148   56.7511 H   0  0  0  0  0  0  0  0  0  0  0  0
   33.7125   41.3229   59.0436 H   0  0  0  0  0  0  0  0  0  0  0  0
   32.7463   39.5859   60.4892 H   0  0  0  0  0  0  0  0  0  0  0  0
   32.4174   37.3178   59.6692 H   0  0  0  0  0  0  0  0  0  0  0  0
   31.4638   35.6002   54.4119 H   0  0  0  0  0  0  0  0  0  0  0  0
   32.6415   34.7052   53.3960 H   0  0  0  0  0  0  0  0  0  0  0  0
   29.8450   31.8496   56.2206 H   0  0  0  0  0  0  0  0  0  0  0  0
   30.2323   31.5979   58.6311 H   0  0  0  0  0  0  0  0  0  0  0  0
   32.0517   32.8383   59.7322 H   0  0  0  0  0  0  0  0  0  0  0  0
   33.4856   34.3455   58.4087 H   0  0  0  0  0  0  0  0  0  0  0  0
  1  2  1  0  0  0  0
  1 24  1  0  0  0  0
  1 25  1  0  0  0  0
  1 26  1  0  0  0  0
  2  3  2  0  0  0  0
  2  4  1  0  0  0  0
  5  4  1  6  0  0  0
  5 23  1  0  0  0  0
  5  6  1  0  0  0  0
  5 16  1  0  0  0  0
  6 15  2  0  0  0  0
  6  7  1  0  0  0  0
  7  8  2  0  0  0  0
  7 27  1  0  0  0  0
  8  9  1  0  0  0  0
  8 28  1  0  0  0  0
  9 14  2  0  0  0  0
  9 10  1  0  0  0  0
 10 11  2  0  0  0  0
 10 29  1  0  0  0  0
 11 12  1  0  0  0  0
 11 30  1  0  0  0  0
 12 13  2  0  0  0  0
 12 31  1  0  0  0  0
 13 14  1  0  0  0  0
 13 32  1  0  0  0  0
 14 15  1  0  0  0  0
 16 17  1  0  0  0  0
 16 33  1  0  0  0  0
 16 34  1  0  0  0  0
 17 18  1  0  0  0  0
 18 23  2  0  0  0  0
 18 19  1  0  0  0  0
 19 20  2  0  0  0  0
 19 35  1  0  0  0  0
 20 21  1  0  0  0  0
 20 36  1  0  0  0  0
 21 22  2  0  0  0  0
 21 37  1  0  0  0  0
 22 23  1  0  0  0  0
 22 38  1  0  0  0  0
M  END
$$$$
