ZINC000000028307      none
 OpenBabel11202420163D

 31 31  0  0  0  0  0  0  0  0999 V2000
   29.2157   35.9959   63.7653 C   0  0  0  0  0  0  0  0  0  0  0  0
   30.2574   37.0168   63.3033 C   0  0  0  0  0  0  0  0  0  0  0  0
   31.0262   37.5455   64.5159 C   0  0  0  0  0  0  0  0  0  0  0  0
   29.5548   38.1790   62.5985 C   0  0  0  0  0  0  0  0  0  0  0  0
   31.2182   36.3571   62.3479 C   0  0  0  0  0  0  0  0  0  0  0  0
   32.4013   36.3139   62.6112 O   0  0  0  0  0  0  0  0  0  0  0  0
   30.7627   35.8151   61.2012 N   0  0  0  0  0  0  0  0  0  0  0  0
   31.6968   35.1738   60.2725 C   0  0  0  0  0  0  0  0  0  0  0  0
   32.2099   36.1956   59.2906 C   0  0  0  0  0  0  0  0  0  0  0  0
   32.5673   35.8077   58.0128 C   0  0  0  0  0  0  0  0  0  0  0  0
   33.0371   36.7451   57.1120 C   0  0  0  0  0  0  0  0  0  0  0  0
   33.1490   38.0704   57.4887 C   0  0  0  0  0  0  0  0  0  0  0  0
   32.7967   38.4573   58.7681 C   0  0  0  0  0  0  0  0  0  0  0  0
   32.3227   37.5207   59.6676 C   0  0  0  0  0  0  0  0  0  0  0  0
   29.7162   35.1679   64.2673 H   0  0  0  0  0  0  0  0  0  0  0  0
   28.5208   36.4731   64.4562 H   0  0  0  0  0  0  0  0  0  0  0  0
   28.6681   35.6193   62.9014 H   0  0  0  0  0  0  0  0  0  0  0  0
   31.7684   38.2729   64.1868 H   0  0  0  0  0  0  0  0  0  0  0  0
   30.3313   38.0228   65.2068 H   0  0  0  0  0  0  0  0  0  0  0  0
   31.5267   36.7175   65.0180 H   0  0  0  0  0  0  0  0  0  0  0  0
   29.0071   37.8024   61.7347 H   0  0  0  0  0  0  0  0  0  0  0  0
   28.8599   38.6563   63.2896 H   0  0  0  0  0  0  0  0  0  0  0  0
   30.2969   38.9064   62.2694 H   0  0  0  0  0  0  0  0  0  0  0  0
   29.8165   35.8496   60.9906 H   0  0  0  0  0  0  0  0  0  0  0  0
   31.1839   34.3774   59.7332 H   0  0  0  0  0  0  0  0  0  0  0  0
   32.5337   34.7543   60.8307 H   0  0  0  0  0  0  0  0  0  0  0  0
   32.4791   34.7723   57.7183 H   0  0  0  0  0  0  0  0  0  0  0  0
   33.3163   36.4420   56.1137 H   0  0  0  0  0  0  0  0  0  0  0  0
   33.5160   38.8026   56.7848 H   0  0  0  0  0  0  0  0  0  0  0  0
   32.8882   39.4920   59.0639 H   0  0  0  0  0  0  0  0  0  0  0  0
   32.0431   37.8239   60.6658 H   0  0  0  0  0  0  0  0  0  0  0  0
  1  2  1  0  0  0  0
  1 15  1  0  0  0  0
  1 16  1  0  0  0  0
  1 17  1  0  0  0  0
  2  3  1  0  0  0  0
  2  4  1  0  0  0  0
  2  5  1  0  0  0  0
  3 18  1  0  0  0  0
  3 19  1  0  0  0  0
  3 20  1  0  0  0  0
  4 21  1  0  0  0  0
  4 22  1  0  0  0  0
  4 23  1  0  0  0  0
  5  6  2  0  0  0  0
  5  7  1  0  0  0  0
  7  8  1  0  0  0  0
  7 24  1  0  0  0  0
  8  9  1  0  0  0  0
  8 25  1  0  0  0  0
  8 26  1  0  0  0  0
  9 14  2  0  0  0  0
  9 10  1  0  0  0  0
 10 11  2  0  0  0  0
 10 27  1  0  0  0  0
 11 12  1  0  0  0  0
 11 28  1  0  0  0  0
 12 13  2  0  0  0  0
 12 29  1  0  0  0  0
 13 14  1  0  0  0  0
 13 30  1  0  0  0  0
 14 31  1  0  0  0  0
M  END
$$$$
