ZINC000000047011      none
 OpenBabel11202420153D

 29 30  0  0  0  0  0  0  0  0999 V2000
   30.5129   37.8057   59.6007 O   0  0  0  0  0  0  0  0  0  0  0  0
   31.2578   38.3238   60.4090 C   0  0  0  0  0  0  0  0  0  0  0  0
   32.4825   38.7379   60.0277 N   0  0  0  0  0  0  0  0  0  0  0  0
   32.8951   38.5716   58.7041 C   0  0  0  0  0  0  0  0  0  0  0  0
   33.2364   39.6663   57.9395 C   0  0  0  0  0  0  0  0  0  0  0  0
   33.6493   39.5114   56.6195 C   0  0  0  0  0  0  0  0  0  0  0  0
   33.7265   38.2784   56.0472 C   0  0  0  0  0  0  0  0  0  0  0  0
   33.3871   37.1365   56.7923 C   0  0  0  0  0  0  0  0  0  0  0  0
   33.4577   35.8509   56.2281 C   0  0  0  0  0  0  0  0  0  0  0  0
   33.1220   34.7665   56.9787 C   0  0  0  0  0  0  0  0  0  0  0  0
   32.7075   34.9102   58.3014 C   0  0  0  0  0  0  0  0  0  0  0  0
   32.6268   36.1399   58.8804 C   0  0  0  0  0  0  0  0  0  0  0  0
   32.9661   37.2814   58.1374 C   0  0  0  0  0  0  0  0  0  0  0  0
   30.8599   38.4842   61.6851 O   0  0  0  0  0  0  0  0  0  0  0  0
   29.9233   37.5074   62.2113 C   0  0  0  0  0  0  0  0  0  0  0  0
   30.5467   36.8010   63.4169 C   0  0  0  0  0  0  0  0  0  0  0  0
   30.8435   37.7432   64.4075 F   0  0  0  0  0  0  0  0  0  0  0  0
   29.6444   35.8598   63.9239 F   0  0  0  0  0  0  0  0  0  0  0  0
   31.7224   36.1539   63.0215 F   0  0  0  0  0  0  0  0  0  0  0  0
   33.0772   39.1514   60.6729 H   0  0  0  0  0  0  0  0  0  0  0  0
   33.1834   40.6554   58.3698 H   0  0  0  0  0  0  0  0  0  0  0  0
   33.9121   40.3837   56.0394 H   0  0  0  0  0  0  0  0  0  0  0  0
   34.0528   38.1777   55.0225 H   0  0  0  0  0  0  0  0  0  0  0  0
   33.7766   35.7245   55.2039 H   0  0  0  0  0  0  0  0  0  0  0  0
   33.1772   33.7799   56.5427 H   0  0  0  0  0  0  0  0  0  0  0  0
   32.4462   34.0335   58.8754 H   0  0  0  0  0  0  0  0  0  0  0  0
   32.3039   36.2363   59.9065 H   0  0  0  0  0  0  0  0  0  0  0  0
   29.0074   38.0116   62.5194 H   0  0  0  0  0  0  0  0  0  0  0  0
   29.6921   36.7733   61.4396 H   0  0  0  0  0  0  0  0  0  0  0  0
  1  2  2  0  0  0  0
  2  3  1  0  0  0  0
  2 14  1  0  0  0  0
  3  4  1  0  0  0  0
  3 20  1  0  0  0  0
  4 13  2  0  0  0  0
  4  5  1  0  0  0  0
  5  6  2  0  0  0  0
  5 21  1  0  0  0  0
  6  7  1  0  0  0  0
  6 22  1  0  0  0  0
  7  8  2  0  0  0  0
  7 23  1  0  0  0  0
  8 13  1  0  0  0  0
  8  9  1  0  0  0  0
  9 10  2  0  0  0  0
  9 24  1  0  0  0  0
 10 11  1  0  0  0  0
 10 25  1  0  0  0  0
 11 12  2  0  0  0  0
 11 26  1  0  0  0  0
 12 13  1  0  0  0  0
 12 27  1  0  0  0  0
 14 15  1  0  0  0  0
 15 16  1  0  0  0  0
 15 28  1  0  0  0  0
 15 29  1  0  0  0  0
 16 17  1  0  0  0  0
 16 18  1  0  0  0  0
 16 19  1  0  0  0  0
M  END
$$$$
