ZINC000000048463      none
 OpenBabel11202420153D

 38 40  0  0  0  0  0  0  0  0999 V2000
   31.1752   41.0592   66.1645 O   0  0  0  0  0  0  0  0  0  0  0  0
   30.3232   40.2044   66.3287 N   0  0  0  0  0  0  0  0  0  0  0  0
   29.3488   40.4404   67.0203 O   0  0  0  0  0  0  0  0  0  0  0  0
   30.4721   38.8784   65.6876 C   0  0  0  0  0  0  0  0  0  0  0  0
   29.5054   37.9081   65.8742 C   0  0  0  0  0  0  0  0  0  0  0  0
   29.6441   36.6700   65.2753 C   0  0  0  0  0  0  0  0  0  0  0  0
   30.7497   36.4022   64.4899 C   0  0  0  0  0  0  0  0  0  0  0  0
   30.9267   34.8239   63.7268 S   0  0  0  0  0  0  0  0  0  0  0  0
   30.1527   33.9160   64.4985 O   0  0  0  0  0  0  0  0  0  0  0  0
   32.3159   34.6493   63.4838 O   0  0  0  0  0  0  0  0  0  0  0  0
   30.1998   34.9133   62.2416 N   0  0  0  0  0  0  0  0  0  0  0  0
   30.6762   35.8806   61.2499 C   0  0  0  0  0  0  0  0  0  0  0  0
   31.7677   35.2366   60.3927 C   0  0  0  0  0  0  0  0  0  0  0  0
   32.2578   36.2317   59.3726 C   0  0  0  0  0  0  0  0  0  0  0  0
   32.5396   37.4772   59.6218 N   0  0  0  0  0  0  0  0  0  0  0  0
   32.9518   38.0890   58.4818 C   0  0  0  0  0  0  0  0  0  0  0  0
   33.3674   39.3889   58.1819 C   0  0  0  0  0  0  0  0  0  0  0  0
   33.7309   39.7097   56.9048 C   0  0  0  0  0  0  0  0  0  0  0  0
   33.6923   38.7563   55.8971 C   0  0  0  0  0  0  0  0  0  0  0  0
   33.2863   37.4675   56.1700 C   0  0  0  0  0  0  0  0  0  0  0  0
   32.9125   37.1232   57.4620 C   0  0  0  0  0  0  0  0  0  0  0  0
   32.4695   35.9588   58.0568 N   0  0  0  0  0  0  0  0  0  0  0  0
   32.3343   35.1044   57.6178 H   0  0  0  0  0  0  0  0  0  0  0  0
   31.7193   37.3705   64.3080 C   0  0  0  0  0  0  0  0  0  0  0  0
   31.5779   38.6105   64.9027 C   0  0  0  0  0  0  0  0  0  0  0  0
   28.6415   38.1174   66.4878 H   0  0  0  0  0  0  0  0  0  0  0  0
   28.8887   35.9119   65.4210 H   0  0  0  0  0  0  0  0  0  0  0  0
   29.4586   34.3250   62.0283 H   0  0  0  0  0  0  0  0  0  0  0  0
   31.0829   36.7538   61.7601 H   0  0  0  0  0  0  0  0  0  0  0  0
   29.8466   36.1860   60.6125 H   0  0  0  0  0  0  0  0  0  0  0  0
   31.3612   34.3635   59.8824 H   0  0  0  0  0  0  0  0  0  0  0  0
   32.5975   34.9313   61.0301 H   0  0  0  0  0  0  0  0  0  0  0  0
   33.4009   40.1388   58.9584 H   0  0  0  0  0  0  0  0  0  0  0  0
   34.0472   40.7167   56.6760 H   0  0  0  0  0  0  0  0  0  0  0  0
   33.9829   39.0257   54.8924 H   0  0  0  0  0  0  0  0  0  0  0  0
   33.2581   36.7293   55.3822 H   0  0  0  0  0  0  0  0  0  0  0  0
   32.5852   37.1598   63.6981 H   0  0  0  0  0  0  0  0  0  0  0  0
   32.3333   39.3684   64.7572 H   0  0  0  0  0  0  0  0  0  0  0  0
  1  2  2  0  0  0  0
  2  3  2  0  0  0  0
  2  4  1  0  0  0  0
  4 25  2  0  0  0  0
  4  5  1  0  0  0  0
  5  6  2  0  0  0  0
  5 26  1  0  0  0  0
  6  7  1  0  0  0  0
  6 27  1  0  0  0  0
  7  8  1  0  0  0  0
  7 24  2  0  0  0  0
  8  9  2  0  0  0  0
  8 10  2  0  0  0  0
  8 11  1  0  0  0  0
 11 12  1  0  0  0  0
 11 28  1  0  0  0  0
 12 13  1  0  0  0  0
 12 29  1  0  0  0  0
 12 30  1  0  0  0  0
 13 14  1  0  0  0  0
 13 31  1  0  0  0  0
 13 32  1  0  0  0  0
 14 22  1  0  0  0  0
 14 15  2  0  0  0  0
 15 16  1  0  0  0  0
 16 21  2  0  0  0  0
 16 17  1  0  0  0  0
 17 18  2  0  0  0  0
 17 33  1  0  0  0  0
 18 19  1  0  0  0  0
 18 34  1  0  0  0  0
 19 20  2  0  0  0  0
 19 35  1  0  0  0  0
 20 21  1  0  0  0  0
 20 36  1  0  0  0  0
 21 22  1  0  0  0  0
 22 23  1  0  0  0  0
 24 25  1  0  0  0  0
 24 37  1  0  0  0  0
 25 38  1  0  0  0  0
M  END
$$$$
