ZINC000000041894      none
 OpenBabel11202420153D

 35 36  0  0  0  0  0  0  0  0999 V2000
   30.7719   34.6221   69.4345 C   0  0  0  0  0  0  0  0  0  0  0  0
   31.3695   35.7169   68.5482 C   0  0  0  0  0  0  0  0  0  0  0  0
   32.6260   36.2823   69.2135 C   0  0  0  0  0  0  0  0  0  0  0  0
   31.7121   35.1651   67.2751 O   0  0  0  0  0  0  0  0  0  0  0  0
   31.1017   35.7018   66.1858 C   0  0  0  0  0  0  0  0  0  0  0  0
   31.2624   37.0481   65.8922 C   0  0  0  0  0  0  0  0  0  0  0  0
   30.6452   37.5900   64.7814 C   0  0  0  0  0  0  0  0  0  0  0  0
   29.8592   36.7942   63.9686 C   0  0  0  0  0  0  0  0  0  0  0  0
   29.0679   37.4899   62.5564 S   0  0  0  0  0  0  0  0  0  0  0  0
   27.9554   36.6544   62.2674 O   0  0  0  0  0  0  0  0  0  0  0  0
   28.9485   38.8832   62.8092 O   0  0  0  0  0  0  0  0  0  0  0  0
   30.1805   37.3237   61.2003 C   0  0  0  0  0  0  0  0  0  0  0  0
   31.0887   38.3288   60.9246 C   0  0  0  0  0  0  0  0  0  0  0  0
   31.9655   38.1967   59.8644 C   0  0  0  0  0  0  0  0  0  0  0  0
   31.9265   37.0630   59.0721 C   0  0  0  0  0  0  0  0  0  0  0  0
   33.0224   36.8996   57.7357 Cl  0  0  0  0  0  0  0  0  0  0  0  0
   31.0136   36.0600   59.3452 C   0  0  0  0  0  0  0  0  0  0  0  0
   30.1411   36.1909   60.4091 C   0  0  0  0  0  0  0  0  0  0  0  0
   29.6928   35.4533   64.2626 C   0  0  0  0  0  0  0  0  0  0  0  0
   30.3120   34.9055   65.3691 C   0  0  0  0  0  0  0  0  0  0  0  0
   29.8769   34.2193   68.9605 H   0  0  0  0  0  0  0  0  0  0  0  0
   31.5024   33.8244   69.5688 H   0  0  0  0  0  0  0  0  0  0  0  0
   30.5107   35.0430   70.4054 H   0  0  0  0  0  0  0  0  0  0  0  0
   30.6391   36.5146   68.4139 H   0  0  0  0  0  0  0  0  0  0  0  0
   33.3563   35.4845   69.3479 H   0  0  0  0  0  0  0  0  0  0  0  0
   33.0517   37.0623   68.5822 H   0  0  0  0  0  0  0  0  0  0  0  0
   32.3648   36.7032   70.1846 H   0  0  0  0  0  0  0  0  0  0  0  0
   31.8729   37.6711   66.5290 H   0  0  0  0  0  0  0  0  0  0  0  0
   30.7731   38.6372   64.5501 H   0  0  0  0  0  0  0  0  0  0  0  0
   31.1160   39.2157   61.5404 H   0  0  0  0  0  0  0  0  0  0  0  0
   32.6779   38.9800   59.6517 H   0  0  0  0  0  0  0  0  0  0  0  0
   30.9825   35.1750   58.7269 H   0  0  0  0  0  0  0  0  0  0  0  0
   29.4282   35.4081   60.6222 H   0  0  0  0  0  0  0  0  0  0  0  0
   29.0778   34.8339   63.6266 H   0  0  0  0  0  0  0  0  0  0  0  0
   30.1815   33.8583   65.5985 H   0  0  0  0  0  0  0  0  0  0  0  0
  1  2  1  0  0  0  0
  1 21  1  0  0  0  0
  1 22  1  0  0  0  0
  1 23  1  0  0  0  0
  2  3  1  0  0  0  0
  2  4  1  0  0  0  0
  2 24  1  0  0  0  0
  3 25  1  0  0  0  0
  3 26  1  0  0  0  0
  3 27  1  0  0  0  0
  4  5  1  0  0  0  0
  5 20  2  0  0  0  0
  5  6  1  0  0  0  0
  6  7  2  0  0  0  0
  6 28  1  0  0  0  0
  7  8  1  0  0  0  0
  7 29  1  0  0  0  0
  8  9  1  0  0  0  0
  8 19  2  0  0  0  0
  9 10  2  0  0  0  0
  9 11  2  0  0  0  0
  9 12  1  0  0  0  0
 12 18  2  0  0  0  0
 12 13  1  0  0  0  0
 13 14  2  0  0  0  0
 13 30  1  0  0  0  0
 14 15  1  0  0  0  0
 14 31  1  0  0  0  0
 15 16  1  0  0  0  0
 15 17  2  0  0  0  0
 17 18  1  0  0  0  0
 17 32  1  0  0  0  0
 18 33  1  0  0  0  0
 19 20  1  0  0  0  0
 19 34  1  0  0  0  0
 20 35  1  0  0  0  0
M  END
$$$$
