ZINC000000007790      none
 OpenBabel11202420153D

 21 22  0  0  0  0  0  0  0  0999 V2000
   33.6906   36.6087   54.7132 C   0  0  0  0  0  0  0  0  0  0  0  0
   33.8364   37.9641   55.1416 O   0  0  0  0  0  0  0  0  0  0  0  0
   33.4979   38.2443   56.4256 C   0  0  0  0  0  0  0  0  0  0  0  0
   33.6191   39.5464   56.8970 C   0  0  0  0  0  0  0  0  0  0  0  0
   33.2722   39.8259   58.2064 C   0  0  0  0  0  0  0  0  0  0  0  0
   32.8117   38.7838   59.0087 C   0  0  0  0  0  0  0  0  0  0  0  0
   32.4553   39.0333   60.3309 N   0  0  0  0  0  0  0  0  0  0  0  0
   32.5286   39.9305   60.6922 H   0  0  0  0  0  0  0  0  0  0  0  0
   32.0025   38.0275   61.1079 C   0  0  0  0  0  0  0  0  0  0  0  0
   31.6840   38.2370   62.2613 O   0  0  0  0  0  0  0  0  0  0  0  0
   31.9042   36.6543   60.5350 C   0  0  0  0  0  0  0  0  0  0  0  0
   31.5043   35.7329   61.2179 O   0  0  0  0  0  0  0  0  0  0  0  0
   32.2576   36.4454   59.2512 N   0  0  0  0  0  0  0  0  0  0  0  0
   32.1931   35.5554   58.8709 H   0  0  0  0  0  0  0  0  0  0  0  0
   32.7141   37.4993   58.4714 C   0  0  0  0  0  0  0  0  0  0  0  0
   33.0580   37.2756   57.2085 N   0  0  0  0  0  0  0  0  0  0  0  0
   33.9944   36.5225   53.6700 H   0  0  0  0  0  0  0  0  0  0  0  0
   34.3176   35.9636   55.3287 H   0  0  0  0  0  0  0  0  0  0  0  0
   32.6484   36.3058   54.8143 H   0  0  0  0  0  0  0  0  0  0  0  0
   33.9803   40.3307   56.2483 H   0  0  0  0  0  0  0  0  0  0  0  0
   33.3567   40.8289   58.5982 H   0  0  0  0  0  0  0  0  0  0  0  0
  1  2  1  0  0  0  0
  1 17  1  0  0  0  0
  1 18  1  0  0  0  0
  1 19  1  0  0  0  0
  2  3  1  0  0  0  0
  3 16  2  0  0  0  0
  3  4  1  0  0  0  0
  4  5  2  0  0  0  0
  4 20  1  0  0  0  0
  5  6  1  0  0  0  0
  5 21  1  0  0  0  0
  6 15  2  0  0  0  0
  6  7  1  0  0  0  0
  7  8  1  0  0  0  0
  7  9  1  0  0  0  0
  9 10  2  0  0  0  0
  9 11  1  0  0  0  0
 11 12  2  0  0  0  0
 11 13  1  0  0  0  0
 13 14  1  0  0  0  0
 13 15  1  0  0  0  0
 15 16  1  0  0  0  0
M  END
$$$$
