ZINC000000029331      none
 OpenBabel11202420163D

 34 35  0  0  0  0  0  0  0  0999 V2000
   33.4117   38.8601   59.2841 O   0  0  0  0  0  0  0  0  0  0  0  0
   33.1256   38.1501   58.3398 C   0  0  0  0  0  0  0  0  0  0  0  0
   32.3758   37.0465   58.5295 N   0  0  0  0  0  0  0  0  0  0  0  0
   31.9053   36.7026   59.8736 C   0  0  0  0  0  0  0  0  0  0  0  0
   30.5620   37.3357   60.1164 C   0  0  0  0  0  0  0  0  0  0  0  0
   30.3659   37.7577   61.5851 C   0  0  0  0  0  0  0  0  0  0  0  0
   30.8933   36.7095   62.5835 C   0  0  0  0  0  0  0  0  0  0  0  0
   30.5539   35.3020   62.1735 C   0  0  0  0  0  0  0  0  0  0  0  0
   31.7423   34.7234   61.3785 C   0  0  0  0  0  0  0  0  0  0  0  0
   31.7549   35.1723   59.9942 C   0  0  0  0  0  0  0  0  0  0  0  0
   33.6004   38.4972   56.9835 C   0  0  0  0  0  0  0  0  0  0  0  0
   33.7921   37.5000   56.0194 C   0  0  0  0  0  0  0  0  0  0  0  0
   34.2324   37.8783   54.7635 C   0  0  0  0  0  0  0  0  0  0  0  0
   34.4778   39.2153   54.5062 C   0  0  0  0  0  0  0  0  0  0  0  0
   34.2935   40.1328   55.4361 N   0  0  0  0  0  0  0  0  0  0  0  0
   33.8706   39.8234   56.6443 C   0  0  0  0  0  0  0  0  0  0  0  0
   32.1474   36.4799   57.7759 H   0  0  0  0  0  0  0  0  0  0  0  0
   32.6182   37.0601   60.6167 H   0  0  0  0  0  0  0  0  0  0  0  0
   30.4670   38.2160   59.4808 H   0  0  0  0  0  0  0  0  0  0  0  0
   29.7825   36.6223   59.8489 H   0  0  0  0  0  0  0  0  0  0  0  0
   29.3026   37.9130   61.7674 H   0  0  0  0  0  0  0  0  0  0  0  0
   30.8902   38.6985   61.7536 H   0  0  0  0  0  0  0  0  0  0  0  0
   30.4586   36.9058   63.5636 H   0  0  0  0  0  0  0  0  0  0  0  0
   31.9768   36.8045   62.6550 H   0  0  0  0  0  0  0  0  0  0  0  0
   30.3767   34.6947   63.0611 H   0  0  0  0  0  0  0  0  0  0  0  0
   29.6603   35.3078   61.5494 H   0  0  0  0  0  0  0  0  0  0  0  0
   32.6714   35.0319   61.8581 H   0  0  0  0  0  0  0  0  0  0  0  0
   31.6825   33.6352   61.3963 H   0  0  0  0  0  0  0  0  0  0  0  0
   32.5858   34.6940   59.4756 H   0  0  0  0  0  0  0  0  0  0  0  0
   30.8226   34.8705   59.5167 H   0  0  0  0  0  0  0  0  0  0  0  0
   33.5975   36.4629   56.2490 H   0  0  0  0  0  0  0  0  0  0  0  0
   34.3877   37.1369   53.9936 H   0  0  0  0  0  0  0  0  0  0  0  0
   34.8256   39.5128   53.5280 H   0  0  0  0  0  0  0  0  0  0  0  0
   33.7319   40.6028   57.3789 H   0  0  0  0  0  0  0  0  0  0  0  0
  1  2  2  0  0  0  0
  2  3  1  0  0  0  0
  2 11  1  0  0  0  0
  3  4  1  0  0  0  0
  3 17  1  0  0  0  0
  4 10  1  0  0  0  0
  4  5  1  0  0  0  0
  4 18  1  0  0  0  0
  5  6  1  0  0  0  0
  5 19  1  0  0  0  0
  5 20  1  0  0  0  0
  6  7  1  0  0  0  0
  6 21  1  0  0  0  0
  6 22  1  0  0  0  0
  7  8  1  0  0  0  0
  7 23  1  0  0  0  0
  7 24  1  0  0  0  0
  8  9  1  0  0  0  0
  8 25  1  0  0  0  0
  8 26  1  0  0  0  0
  9 10  1  0  0  0  0
  9 27  1  0  0  0  0
  9 28  1  0  0  0  0
 10 29  1  0  0  0  0
 10 30  1  0  0  0  0
 11 16  2  0  0  0  0
 11 12  1  0  0  0  0
 12 13  2  0  0  0  0
 12 31  1  0  0  0  0
 13 14  1  0  0  0  0
 13 32  1  0  0  0  0
 14 15  2  0  0  0  0
 14 33  1  0  0  0  0
 15 16  1  0  0  0  0
 16 34  1  0  0  0  0
M  END
$$$$
