ZINC000000052826      none
 OpenBabel11202420153D

 29 30  0  0  0  0  0  0  0  0999 V2000
   32.6830   35.8482   51.7146 C   0  0  0  0  0  0  0  0  0  0  0  0
   33.2878   34.9994   52.8030 C   0  0  0  0  0  0  0  0  0  0  0  0
   33.6726   33.6991   52.5318 C   0  0  0  0  0  0  0  0  0  0  0  0
   34.2223   32.9160   53.5296 C   0  0  0  0  0  0  0  0  0  0  0  0
   34.3992   33.4348   54.7980 C   0  0  0  0  0  0  0  0  0  0  0  0
   35.0039   32.5824   55.8837 C   0  0  0  0  0  0  0  0  0  0  0  0
   34.0138   34.7386   55.0727 C   0  0  0  0  0  0  0  0  0  0  0  0
   34.1816   35.2493   56.3209 O   0  0  0  0  0  0  0  0  0  0  0  0
   33.0070   35.6897   57.0050 C   0  0  0  0  0  0  0  0  0  0  0  0
   33.1324   37.1569   57.3253 C   0  0  0  0  0  0  0  0  0  0  0  0
   33.5533   38.0784   56.5215 N   0  0  0  0  0  0  0  0  0  0  0  0
   33.5921   39.2639   56.9495 N   0  0  0  0  0  0  0  0  0  0  0  0
   33.2148   39.4751   58.1780 C   0  0  0  0  0  0  0  0  0  0  0  0
   33.1917   40.7000   58.8281 N   0  0  0  0  0  0  0  0  0  0  0  0
   32.7383   37.9213   58.8665 S   0  0  0  0  0  0  0  0  0  0  0  0
   33.4569   35.5207   54.0709 C   0  0  0  0  0  0  0  0  0  0  0  0
   31.6005   35.7211   51.7139 H   0  0  0  0  0  0  0  0  0  0  0  0
   32.9257   36.8957   51.8935 H   0  0  0  0  0  0  0  0  0  0  0  0
   33.0855   35.5419   50.7491 H   0  0  0  0  0  0  0  0  0  0  0  0
   33.5391   33.2933   51.5398 H   0  0  0  0  0  0  0  0  0  0  0  0
   34.5179   31.8993   53.3164 H   0  0  0  0  0  0  0  0  0  0  0  0
   34.2129   32.0450   56.4065 H   0  0  0  0  0  0  0  0  0  0  0  0
   35.6974   31.8676   55.4407 H   0  0  0  0  0  0  0  0  0  0  0  0
   35.5389   33.2182   56.5892 H   0  0  0  0  0  0  0  0  0  0  0  0
   32.1354   35.5296   56.3705 H   0  0  0  0  0  0  0  0  0  0  0  0
   32.8917   35.1245   57.9299 H   0  0  0  0  0  0  0  0  0  0  0  0
   32.8924   40.7548   59.7492 H   0  0  0  0  0  0  0  0  0  0  0  0
   33.4748   41.5021   58.3617 H   0  0  0  0  0  0  0  0  0  0  0  0
   33.1563   36.5362   54.2823 H   0  0  0  0  0  0  0  0  0  0  0  0
  1  2  1  0  0  0  0
  1 17  1  0  0  0  0
  1 18  1  0  0  0  0
  1 19  1  0  0  0  0
  2 16  2  0  0  0  0
  2  3  1  0  0  0  0
  3  4  2  0  0  0  0
  3 20  1  0  0  0  0
  4  5  1  0  0  0  0
  4 21  1  0  0  0  0
  5  6  1  0  0  0  0
  5  7  2  0  0  0  0
  6 22  1  0  0  0  0
  6 23  1  0  0  0  0
  6 24  1  0  0  0  0
  7  8  1  0  0  0  0
  7 16  1  0  0  0  0
  8  9  1  0  0  0  0
  9 10  1  0  0  0  0
  9 25  1  0  0  0  0
  9 26  1  0  0  0  0
 10 15  1  0  0  0  0
 10 11  2  0  0  0  0
 11 12  1  0  0  0  0
 12 13  2  0  0  0  0
 13 14  1  0  0  0  0
 13 15  1  0  0  0  0
 14 27  1  0  0  0  0
 14 28  1  0  0  0  0
 16 29  1  0  0  0  0
M  END
$$$$
