ZINC000000034252      none
 OpenBabel11202420153D

 32 33  0  0  0  0  0  0  0  0999 V2000
   30.0732   38.3173   62.6667 C   0  0  0  0  0  0  0  0  0  0  0  0
   31.5590   37.9532   62.6417 C   0  0  0  0  0  0  0  0  0  0  0  0
   31.9820   37.6658   61.2241 C   0  0  0  0  0  0  0  0  0  0  0  0
   31.9063   36.5376   60.7857 O   0  0  0  0  0  0  0  0  0  0  0  0
   32.4444   38.6624   60.4436 N   0  0  0  0  0  0  0  0  0  0  0  0
   32.8347   38.3972   59.1358 C   0  0  0  0  0  0  0  0  0  0  0  0
   33.3133   39.4464   58.3395 C   0  0  0  0  0  0  0  0  0  0  0  0
   33.6996   39.1997   57.0556 C   0  0  0  0  0  0  0  0  0  0  0  0
   33.6012   37.8803   56.5721 C   0  0  0  0  0  0  0  0  0  0  0  0
   33.9755   37.5528   55.2578 C   0  0  0  0  0  0  0  0  0  0  0  0
   34.5029   38.6057   54.3175 C   0  0  0  0  0  0  0  0  0  0  0  0
   33.8574   36.2501   54.8592 C   0  0  0  0  0  0  0  0  0  0  0  0
   33.3666   35.2967   55.7464 C   0  0  0  0  0  0  0  0  0  0  0  0
   33.2372   33.8670   55.2881 C   0  0  0  0  0  0  0  0  0  0  0  0
   33.0139   35.6087   56.9708 N   0  0  0  0  0  0  0  0  0  0  0  0
   33.1095   36.8625   57.4256 C   0  0  0  0  0  0  0  0  0  0  0  0
   32.7458   37.1664   58.6762 N   0  0  0  0  0  0  0  0  0  0  0  0
   29.9053   39.2010   62.0511 H   0  0  0  0  0  0  0  0  0  0  0  0
   29.4885   37.4852   62.2746 H   0  0  0  0  0  0  0  0  0  0  0  0
   29.7672   38.5252   63.6920 H   0  0  0  0  0  0  0  0  0  0  0  0
   31.7268   37.0694   63.2572 H   0  0  0  0  0  0  0  0  0  0  0  0
   32.1436   38.7853   63.0337 H   0  0  0  0  0  0  0  0  0  0  0  0
   32.5049   39.5648   60.7943 H   0  0  0  0  0  0  0  0  0  0  0  0
   33.3758   40.4468   58.7415 H   0  0  0  0  0  0  0  0  0  0  0  0
   34.0714   39.9946   56.4261 H   0  0  0  0  0  0  0  0  0  0  0  0
   35.5872   38.6666   54.4115 H   0  0  0  0  0  0  0  0  0  0  0  0
   34.2412   38.3418   53.2929 H   0  0  0  0  0  0  0  0  0  0  0  0
   34.0618   39.5705   54.5681 H   0  0  0  0  0  0  0  0  0  0  0  0
   34.1396   35.9628   53.8572 H   0  0  0  0  0  0  0  0  0  0  0  0
   32.2495   33.7127   54.8536 H   0  0  0  0  0  0  0  0  0  0  0  0
   34.0005   33.6549   54.5396 H   0  0  0  0  0  0  0  0  0  0  0  0
   33.3679   33.1993   56.1396 H   0  0  0  0  0  0  0  0  0  0  0  0
  1  2  1  0  0  0  0
  1 18  1  0  0  0  0
  1 19  1  0  0  0  0
  1 20  1  0  0  0  0
  2  3  1  0  0  0  0
  2 21  1  0  0  0  0
  2 22  1  0  0  0  0
  3  4  2  0  0  0  0
  3  5  1  0  0  0  0
  5  6  1  0  0  0  0
  5 23  1  0  0  0  0
  6 17  2  0  0  0  0
  6  7  1  0  0  0  0
  7  8  2  0  0  0  0
  7 24  1  0  0  0  0
  8  9  1  0  0  0  0
  8 25  1  0  0  0  0
  9 16  2  0  0  0  0
  9 10  1  0  0  0  0
 10 11  1  0  0  0  0
 10 12  2  0  0  0  0
 11 26  1  0  0  0  0
 11 27  1  0  0  0  0
 11 28  1  0  0  0  0
 12 13  1  0  0  0  0
 12 29  1  0  0  0  0
 13 14  1  0  0  0  0
 13 15  2  0  0  0  0
 14 30  1  0  0  0  0
 14 31  1  0  0  0  0
 14 32  1  0  0  0  0
 15 16  1  0  0  0  0
 16 17  1  0  0  0  0
M  END
$$$$
