ZINC000000053934      none
 OpenBabel11202420153D

 27 28  0  0  0  0  0  0  0  0999 V2000
   32.2530   39.9039   67.9176 N   0  0  0  0  0  0  0  0  0  0  0  0
   32.0248   39.4889   66.6108 C   0  0  0  0  0  0  0  0  0  0  0  0
   31.1787   40.0264   65.7896 N   0  0  0  0  0  0  0  0  0  0  0  0
   31.1164   39.4530   64.5384 N   0  0  0  0  0  0  0  0  0  0  0  0
   31.9123   38.4487   64.3422 C   0  0  0  0  0  0  0  0  0  0  0  0
   32.0438   37.5276   62.8459 S   0  0  0  0  0  0  0  0  0  0  0  0
   30.8370   38.3374   61.7606 C   0  0  0  0  0  0  0  0  0  0  0  0
   31.2905   38.2193   60.3284 C   0  0  0  0  0  0  0  0  0  0  0  0
   30.5918   37.6510   59.5159 O   0  0  0  0  0  0  0  0  0  0  0  0
   32.4726   38.7449   59.9501 N   0  0  0  0  0  0  0  0  0  0  0  0
   32.8941   38.6350   58.6192 C   0  0  0  0  0  0  0  0  0  0  0  0
   33.1365   39.7779   57.8697 C   0  0  0  0  0  0  0  0  0  0  0  0
   33.5528   39.6665   56.5572 C   0  0  0  0  0  0  0  0  0  0  0  0
   33.7284   38.4183   55.9886 C   0  0  0  0  0  0  0  0  0  0  0  0
   33.4882   37.2769   56.7310 C   0  0  0  0  0  0  0  0  0  0  0  0
   33.0718   37.3808   58.0457 C   0  0  0  0  0  0  0  0  0  0  0  0
   32.8379   36.2656   58.7717 F   0  0  0  0  0  0  0  0  0  0  0  0
   32.8351   38.1467   65.8105 S   0  0  0  0  0  0  0  0  0  0  0  0
   31.7576   40.6540   68.2819 H   0  0  0  0  0  0  0  0  0  0  0  0
   32.9077   39.4432   68.4653 H   0  0  0  0  0  0  0  0  0  0  0  0
   30.7551   39.3905   62.0300 H   0  0  0  0  0  0  0  0  0  0  0  0
   29.8653   37.8566   61.8749 H   0  0  0  0  0  0  0  0  0  0  0  0
   33.0314   39.1993   60.5999 H   0  0  0  0  0  0  0  0  0  0  0  0
   33.0041   40.7535   58.3136 H   0  0  0  0  0  0  0  0  0  0  0  0
   33.7410   40.5558   55.9739 H   0  0  0  0  0  0  0  0  0  0  0  0
   34.0536   38.3348   54.9621 H   0  0  0  0  0  0  0  0  0  0  0  0
   33.6263   36.3034   56.2840 H   0  0  0  0  0  0  0  0  0  0  0  0
  1  2  1  0  0  0  0
  1 19  1  0  0  0  0
  1 20  1  0  0  0  0
  2 18  1  0  0  0  0
  2  3  2  0  0  0  0
  3  4  1  0  0  0  0
  4  5  2  0  0  0  0
  5  6  1  0  0  0  0
  5 18  1  0  0  0  0
  6  7  1  0  0  0  0
  7  8  1  0  0  0  0
  7 21  1  0  0  0  0
  7 22  1  0  0  0  0
  8  9  2  0  0  0  0
  8 10  1  0  0  0  0
 10 11  1  0  0  0  0
 10 23  1  0  0  0  0
 11 16  2  0  0  0  0
 11 12  1  0  0  0  0
 12 13  2  0  0  0  0
 12 24  1  0  0  0  0
 13 14  1  0  0  0  0
 13 25  1  0  0  0  0
 14 15  2  0  0  0  0
 14 26  1  0  0  0  0
 15 16  1  0  0  0  0
 15 27  1  0  0  0  0
 16 17  1  0  0  0  0
M  END
$$$$
