ZINC000000000381      none
 OpenBabel11202420153D

 35 35  0  0  1  0  0  0  0  0999 V2000
   29.6539   36.1477   60.4901 C   0  0  0  0  0  0  0  0  0  0  0  0
   30.5973   37.3396   60.6640 C   0  0  0  0  0  0  0  0  0  0  0  0
   30.2742   38.0585   61.9754 C   0  0  0  0  0  0  0  0  0  0  0  0
   32.0444   36.8442   60.6970 C   0  0  0  0  0  0  0  0  0  0  0  0
   32.3625   36.1360   59.4053 C   0  0  0  0  0  0  0  0  0  0  0  0
   32.8737   36.8464   58.3353 C   0  0  0  0  0  0  0  0  0  0  0  0
   33.1654   36.1968   57.1504 C   0  0  0  0  0  0  0  0  0  0  0  0
   32.9468   34.8367   57.0359 C   0  0  0  0  0  0  0  0  0  0  0  0
   33.2650   34.1285   55.7443 C   0  0  2  0  0  0  0  0  0  0  0  0
   33.6545   34.8465   55.0227 H   0  0  0  0  0  0  0  0  0  0  0  0
   31.9927   33.4858   55.1883 C   0  0  0  0  0  0  0  0  0  0  0  0
   34.2976   33.0607   55.9980 C   0  0  0  0  0  0  0  0  0  0  0  0
   35.1122   33.2034   56.8851 O   0  0  0  0  0  0  0  0  0  0  0  0
   34.3158   31.9470   55.2390 N   0  0  0  0  0  0  0  0  0  0  0  0
   35.2863   30.9438   55.4774 O   0  0  0  0  0  0  0  0  0  0  0  0
   32.4312   34.1272   58.1044 C   0  0  0  0  0  0  0  0  0  0  0  0
   32.1435   34.7760   59.2906 C   0  0  0  0  0  0  0  0  0  0  0  0
   29.8841   35.6355   59.5558 H   0  0  0  0  0  0  0  0  0  0  0  0
   29.7829   35.4576   61.3240 H   0  0  0  0  0  0  0  0  0  0  0  0
   28.6230   36.5007   60.4665 H   0  0  0  0  0  0  0  0  0  0  0  0
   30.4685   38.0297   59.8302 H   0  0  0  0  0  0  0  0  0  0  0  0
   30.9464   38.9077   62.0994 H   0  0  0  0  0  0  0  0  0  0  0  0
   29.2433   38.4115   61.9519 H   0  0  0  0  0  0  0  0  0  0  0  0
   30.4032   37.3685   62.8093 H   0  0  0  0  0  0  0  0  0  0  0  0
   32.1733   36.1542   61.5309 H   0  0  0  0  0  0  0  0  0  0  0  0
   32.7165   37.6933   60.8208 H   0  0  0  0  0  0  0  0  0  0  0  0
   33.0447   37.9090   58.4249 H   0  0  0  0  0  0  0  0  0  0  0  0
   33.5645   36.7520   56.3143 H   0  0  0  0  0  0  0  0  0  0  0  0
   31.6031   32.7677   55.9099 H   0  0  0  0  0  0  0  0  0  0  0  0
   31.2458   34.2582   55.0048 H   0  0  0  0  0  0  0  0  0  0  0  0
   32.2228   32.9736   54.2540 H   0  0  0  0  0  0  0  0  0  0  0  0
   33.6644   31.8328   54.5295 H   0  0  0  0  0  0  0  0  0  0  0  0
   35.2202   30.1836   54.8833 H   0  0  0  0  0  0  0  0  0  0  0  0
   32.2564   33.0653   58.0134 H   0  0  0  0  0  0  0  0  0  0  0  0
   31.7445   34.2209   60.1267 H   0  0  0  0  0  0  0  0  0  0  0  0
  1  2  1  0  0  0  0
  1 18  1  0  0  0  0
  1 19  1  0  0  0  0
  1 20  1  0  0  0  0
  2  3  1  0  0  0  0
  2  4  1  0  0  0  0
  2 21  1  0  0  0  0
  3 22  1  0  0  0  0
  3 23  1  0  0  0  0
  3 24  1  0  0  0  0
  4  5  1  0  0  0  0
  4 25  1  0  0  0  0
  4 26  1  0  0  0  0
  5 17  2  0  0  0  0
  5  6  1  0  0  0  0
  6  7  2  0  0  0  0
  6 27  1  0  0  0  0
  7  8  1  0  0  0  0
  7 28  1  0  0  0  0
  8  9  1  0  0  0  0
  8 16  2  0  0  0  0
  9 10  1  6  0  0  0
  9 11  1  0  0  0  0
  9 12  1  0  0  0  0
 11 29  1  0  0  0  0
 11 30  1  0  0  0  0
 11 31  1  0  0  0  0
 12 13  2  0  0  0  0
 12 14  1  0  0  0  0
 14 15  1  0  0  0  0
 14 32  1  0  0  0  0
 15 33  1  0  0  0  0
 16 17  1  0  0  0  0
 16 34  1  0  0  0  0
 17 35  1  0  0  0  0
M  END
$$$$
