ZINC000000039212      none
 OpenBabel11202420153D

 35 37  0  0  0  0  0  0  0  0999 V2000
   28.5097   36.4123   62.3546 O   0  0  0  0  0  0  0  0  0  0  0  0
   29.7116   36.4746   62.2044 C   0  0  0  0  0  0  0  0  0  0  0  0
   30.3657   35.7539   61.0537 C   0  0  0  0  0  0  0  0  0  0  0  0
   31.0897   36.7660   60.1633 C   0  0  0  0  0  0  0  0  0  0  0  0
   31.7254   36.0654   59.0448 N   0  0  0  0  0  0  0  0  0  0  0  0
   32.4502   36.7849   58.0912 C   0  0  0  0  0  0  0  0  0  0  0  0
   33.0582   36.1214   57.0332 C   0  0  0  0  0  0  0  0  0  0  0  0
   33.7695   36.8358   56.0893 C   0  0  0  0  0  0  0  0  0  0  0  0
   33.8855   38.2099   56.2025 C   0  0  0  0  0  0  0  0  0  0  0  0
   34.8663   39.1836   54.9118 Br  0  0  0  0  0  0  0  0  0  0  0  0
   33.2857   38.8728   57.2584 C   0  0  0  0  0  0  0  0  0  0  0  0
   32.5687   38.1644   58.2024 C   0  0  0  0  0  0  0  0  0  0  0  0
   30.5298   37.2523   63.1438 C   0  0  0  0  0  0  0  0  0  0  0  0
   31.8528   36.8746   63.4025 C   0  0  0  0  0  0  0  0  0  0  0  0
   32.6189   37.6084   64.2796 C   0  0  0  0  0  0  0  0  0  0  0  0
   32.0813   38.7194   64.9180 C   0  0  0  0  0  0  0  0  0  0  0  0
   30.7625   39.1023   64.6653 C   0  0  0  0  0  0  0  0  0  0  0  0
   29.9893   38.3745   63.7837 C   0  0  0  0  0  0  0  0  0  0  0  0
   30.4832   40.2150   65.4056 O   0  0  0  0  0  0  0  0  0  0  0  0
   31.5045   40.2678   66.4190 C   0  0  0  0  0  0  0  0  0  0  0  0
   32.6228   39.5923   65.8143 O   0  0  0  0  0  0  0  0  0  0  0  0
   31.0838   35.0302   61.4393 H   0  0  0  0  0  0  0  0  0  0  0  0
   29.6049   35.2355   60.4702 H   0  0  0  0  0  0  0  0  0  0  0  0
   30.3716   37.4897   59.7778 H   0  0  0  0  0  0  0  0  0  0  0  0
   31.8504   37.2845   60.7469 H   0  0  0  0  0  0  0  0  0  0  0  0
   31.6432   35.1021   58.9663 H   0  0  0  0  0  0  0  0  0  0  0  0
   32.9717   35.0483   56.9468 H   0  0  0  0  0  0  0  0  0  0  0  0
   34.2391   36.3209   55.2642 H   0  0  0  0  0  0  0  0  0  0  0  0
   33.3785   39.9453   57.3446 H   0  0  0  0  0  0  0  0  0  0  0  0
   32.1010   38.6824   59.0267 H   0  0  0  0  0  0  0  0  0  0  0  0
   32.2736   36.0097   62.9111 H   0  0  0  0  0  0  0  0  0  0  0  0
   33.6408   37.3183   64.4740 H   0  0  0  0  0  0  0  0  0  0  0  0
   28.9692   38.6701   63.5874 H   0  0  0  0  0  0  0  0  0  0  0  0
   31.1802   39.7426   67.3173 H   0  0  0  0  0  0  0  0  0  0  0  0
   31.7612   41.3015   66.6503 H   0  0  0  0  0  0  0  0  0  0  0  0
  1  2  2  0  0  0  0
  2  3  1  0  0  0  0
  2 13  1  0  0  0  0
  3  4  1  0  0  0  0
  3 22  1  0  0  0  0
  3 23  1  0  0  0  0
  4  5  1  0  0  0  0
  4 24  1  0  0  0  0
  4 25  1  0  0  0  0
  5  6  1  0  0  0  0
  5 26  1  0  0  0  0
  6 12  2  0  0  0  0
  6  7  1  0  0  0  0
  7  8  2  0  0  0  0
  7 27  1  0  0  0  0
  8  9  1  0  0  0  0
  8 28  1  0  0  0  0
  9 10  1  0  0  0  0
  9 11  2  0  0  0  0
 11 12  1  0  0  0  0
 11 29  1  0  0  0  0
 12 30  1  0  0  0  0
 13 18  2  0  0  0  0
 13 14  1  0  0  0  0
 14 15  2  0  0  0  0
 14 31  1  0  0  0  0
 15 16  1  0  0  0  0
 15 32  1  0  0  0  0
 16 21  1  0  0  0  0
 16 17  2  0  0  0  0
 17 18  1  0  0  0  0
 17 19  1  0  0  0  0
 18 33  1  0  0  0  0
 19 20  1  0  0  0  0
 20 21  1  0  0  0  0
 20 34  1  0  0  0  0
 20 35  1  0  0  0  0
M  END
$$$$
