ZINC000000001203      none
 OpenBabel11202420153D

 33 35  0  0  0  0  0  0  0  0999 V2000
   28.4280   39.8002   66.5260 C   0  0  0  0  0  0  0  0  0  0  0  0
   29.4985   38.7961   66.9583 C   0  0  0  0  0  0  0  0  0  0  0  0
   29.8266   37.8839   65.8045 C   0  0  0  0  0  0  0  0  0  0  0  0
   29.2002   38.0614   64.6810 N   0  0  0  0  0  0  0  0  0  0  0  0
   29.4433   37.2792   63.5999 C   0  0  0  0  0  0  0  0  0  0  0  0
   28.7703   37.4702   62.3914 C   0  0  0  0  0  0  0  0  0  0  0  0
   29.0488   36.6528   61.3192 C   0  0  0  0  0  0  0  0  0  0  0  0
   29.9922   35.6388   61.4236 C   0  0  0  0  0  0  0  0  0  0  0  0
   30.6691   35.4306   62.6051 C   0  0  0  0  0  0  0  0  0  0  0  0
   30.4021   36.2469   63.7025 C   0  0  0  0  0  0  0  0  0  0  0  0
   31.0936   36.0718   64.9879 C   0  0  0  0  0  0  0  0  0  0  0  0
   31.9304   35.2013   65.1424 O   0  0  0  0  0  0  0  0  0  0  0  0
   30.7635   36.9159   65.9931 N   0  0  0  0  0  0  0  0  0  0  0  0
   31.3928   36.7918   67.2390 C   0  0  0  0  0  0  0  0  0  0  0  0
   32.5673   37.4871   67.4981 C   0  0  0  0  0  0  0  0  0  0  0  0
   33.2581   38.5113   66.2786 Cl  0  0  0  0  0  0  0  0  0  0  0  0
   33.1823   37.3667   68.7303 C   0  0  0  0  0  0  0  0  0  0  0  0
   32.6359   36.5466   69.7004 C   0  0  0  0  0  0  0  0  0  0  0  0
   31.4701   35.8487   69.4439 C   0  0  0  0  0  0  0  0  0  0  0  0
   30.8467   35.9686   68.2160 C   0  0  0  0  0  0  0  0  0  0  0  0
   29.3834   35.0915   67.8950 Cl  0  0  0  0  0  0  0  0  0  0  0  0
   27.5296   39.2643   66.2198 H   0  0  0  0  0  0  0  0  0  0  0  0
   28.1906   40.4601   67.3606 H   0  0  0  0  0  0  0  0  0  0  0  0
   28.8010   40.3916   65.6899 H   0  0  0  0  0  0  0  0  0  0  0  0
   29.1254   38.2048   67.7944 H   0  0  0  0  0  0  0  0  0  0  0  0
   30.3968   39.3321   67.2645 H   0  0  0  0  0  0  0  0  0  0  0  0
   28.0348   38.2556   62.2981 H   0  0  0  0  0  0  0  0  0  0  0  0
   28.5306   36.8049   60.3839 H   0  0  0  0  0  0  0  0  0  0  0  0
   30.1964   35.0078   60.5712 H   0  0  0  0  0  0  0  0  0  0  0  0
   31.4014   34.6402   62.6805 H   0  0  0  0  0  0  0  0  0  0  0  0
   34.0927   37.9106   68.9342 H   0  0  0  0  0  0  0  0  0  0  0  0
   33.1211   36.4507   70.6605 H   0  0  0  0  0  0  0  0  0  0  0  0
   31.0460   35.2094   70.2041 H   0  0  0  0  0  0  0  0  0  0  0  0
  1  2  1  0  0  0  0
  1 22  1  0  0  0  0
  1 23  1  0  0  0  0
  1 24  1  0  0  0  0
  2  3  1  0  0  0  0
  2 25  1  0  0  0  0
  2 26  1  0  0  0  0
  3 13  1  0  0  0  0
  3  4  2  0  0  0  0
  4  5  1  0  0  0  0
  5 10  2  0  0  0  0
  5  6  1  0  0  0  0
  6  7  2  0  0  0  0
  6 27  1  0  0  0  0
  7  8  1  0  0  0  0
  7 28  1  0  0  0  0
  8  9  2  0  0  0  0
  8 29  1  0  0  0  0
  9 10  1  0  0  0  0
  9 30  1  0  0  0  0
 10 11  1  0  0  0  0
 11 12  2  0  0  0  0
 11 13  1  0  0  0  0
 13 14  1  0  0  0  0
 14 20  2  0  0  0  0
 14 15  1  0  0  0  0
 15 16  1  0  0  0  0
 15 17  2  0  0  0  0
 17 18  1  0  0  0  0
 17 31  1  0  0  0  0
 18 19  2  0  0  0  0
 18 32  1  0  0  0  0
 19 20  1  0  0  0  0
 19 33  1  0  0  0  0
 20 21  1  0  0  0  0
M  END
$$$$
