ZINC000000033435      none
 OpenBabel11202420153D

 42 43  0  0  0  0  0  0  0  0999 V2000
   28.7238   32.4244   64.6632 C   0  0  0  0  0  0  0  0  0  0  0  0
   28.7213   33.8390   65.2464 C   0  0  0  0  0  0  0  0  0  0  0  0
   30.0439   34.4217   65.1081 O   0  0  0  0  0  0  0  0  0  0  0  0
   30.2127   35.6756   65.5761 C   0  0  0  0  0  0  0  0  0  0  0  0
   29.2789   36.2653   66.0859 O   0  0  0  0  0  0  0  0  0  0  0  0
   31.5203   36.3270   65.4705 C   0  0  0  0  0  0  0  0  0  0  0  0
   32.0435   37.2845   66.3455 N   0  0  0  0  0  0  0  0  0  0  0  0
   31.6054   37.6390   67.1351 H   0  0  0  0  0  0  0  0  0  0  0  0
   33.2667   37.6246   65.8940 C   0  0  0  0  0  0  0  0  0  0  0  0
   34.0148   38.4347   66.4097 O   0  0  0  0  0  0  0  0  0  0  0  0
   33.5252   36.9143   64.7801 N   0  0  0  0  0  0  0  0  0  0  0  0
   34.3392   36.9632   64.2548 H   0  0  0  0  0  0  0  0  0  0  0  0
   32.4475   36.1143   64.5090 C   0  0  0  0  0  0  0  0  0  0  0  0
   32.3197   35.1612   63.3486 C   0  0  0  0  0  0  0  0  0  0  0  0
   31.7222   35.8509   62.2192 O   0  0  0  0  0  0  0  0  0  0  0  0
   30.3834   35.8222   62.1263 C   0  0  0  0  0  0  0  0  0  0  0  0
   29.7324   35.2399   62.9613 O   0  0  0  0  0  0  0  0  0  0  0  0
   29.6926   36.5159   60.9808 C   0  0  0  0  0  0  0  0  0  0  0  0
   30.5681   36.5089   59.8062 N   0  0  0  0  0  0  0  0  0  0  0  0
   31.4323   37.5232   59.6038 C   0  0  0  0  0  0  0  0  0  0  0  0
   31.4854   38.4436   60.3959 O   0  0  0  0  0  0  0  0  0  0  0  0
   32.3158   37.5160   58.4184 C   0  0  0  0  0  0  0  0  0  0  0  0
   32.6916   36.3065   57.8318 C   0  0  0  0  0  0  0  0  0  0  0  0
   33.5160   36.3068   56.7255 C   0  0  0  0  0  0  0  0  0  0  0  0
   33.9700   37.5024   56.1976 C   0  0  0  0  0  0  0  0  0  0  0  0
   33.6012   38.7048   56.7743 C   0  0  0  0  0  0  0  0  0  0  0  0
   32.7773   38.7185   57.8809 C   0  0  0  0  0  0  0  0  0  0  0  0
   27.7309   31.9868   64.7670 H   0  0  0  0  0  0  0  0  0  0  0  0
   28.9936   32.4668   63.6080 H   0  0  0  0  0  0  0  0  0  0  0  0
   29.4486   31.8117   65.1992 H   0  0  0  0  0  0  0  0  0  0  0  0
   28.4515   33.7965   66.3015 H   0  0  0  0  0  0  0  0  0  0  0  0
   27.9964   34.4517   64.7103 H   0  0  0  0  0  0  0  0  0  0  0  0
   31.6882   34.3208   63.6366 H   0  0  0  0  0  0  0  0  0  0  0  0
   33.3074   34.7945   63.0692 H   0  0  0  0  0  0  0  0  0  0  0  0
   29.4689   37.5452   61.2611 H   0  0  0  0  0  0  0  0  0  0  0  0
   28.7652   35.9936   60.7458 H   0  0  0  0  0  0  0  0  0  0  0  0
   30.5258   35.7743   59.1741 H   0  0  0  0  0  0  0  0  0  0  0  0
   32.3416   35.3724   58.2455 H   0  0  0  0  0  0  0  0  0  0  0  0
   33.8076   35.3717   56.2705 H   0  0  0  0  0  0  0  0  0  0  0  0
   34.6154   37.4972   55.3316 H   0  0  0  0  0  0  0  0  0  0  0  0
   33.9587   39.6346   56.3572 H   0  0  0  0  0  0  0  0  0  0  0  0
   32.4904   39.6577   58.3304 H   0  0  0  0  0  0  0  0  0  0  0  0
  1  2  1  0  0  0  0
  1 28  1  0  0  0  0
  1 29  1  0  0  0  0
  1 30  1  0  0  0  0
  2  3  1  0  0  0  0
  2 31  1  0  0  0  0
  2 32  1  0  0  0  0
  3  4  1  0  0  0  0
  4  5  2  0  0  0  0
  4  6  1  0  0  0  0
  6 13  2  0  0  0  0
  6  7  1  0  0  0  0
  7  8  1  0  0  0  0
  7  9  1  0  0  0  0
  9 10  2  0  0  0  0
  9 11  1  0  0  0  0
 11 12  1  0  0  0  0
 11 13  1  0  0  0  0
 13 14  1  0  0  0  0
 14 15  1  0  0  0  0
 14 33  1  0  0  0  0
 14 34  1  0  0  0  0
 15 16  1  0  0  0  0
 16 17  2  0  0  0  0
 16 18  1  0  0  0  0
 18 19  1  0  0  0  0
 18 35  1  0  0  0  0
 18 36  1  0  0  0  0
 19 20  1  0  0  0  0
 19 37  1  0  0  0  0
 20 21  2  0  0  0  0
 20 22  1  0  0  0  0
 22 27  2  0  0  0  0
 22 23  1  0  0  0  0
 23 24  2  0  0  0  0
 23 38  1  0  0  0  0
 24 25  1  0  0  0  0
 24 39  1  0  0  0  0
 25 26  2  0  0  0  0
 25 40  1  0  0  0  0
 26 27  1  0  0  0  0
 26 41  1  0  0  0  0
 27 42  1  0  0  0  0
M  END
$$$$
