ZINC000000019907      none
 OpenBabel11202420153D

 14 14  0  0  0  0  0  0  0  0999 V2000
   32.7990   38.5927   59.2658 N   0  0  0  0  0  0  0  0  0  0  0  0
   33.2323   39.4988   58.4303 C   0  0  0  0  0  0  0  0  0  0  0  0
   33.3367   40.8149   58.8327 N   0  0  0  0  0  0  0  0  0  0  0  0
   33.6091   39.1162   57.0603 C   0  0  0  0  0  0  0  0  0  0  0  0
   33.5544   37.8593   56.5367 C   0  0  0  0  0  0  0  0  0  0  0  0
   34.0083   37.9539   55.2095 C   0  0  0  0  0  0  0  0  0  0  0  0
   34.3072   39.2506   54.9842 C   0  0  0  0  0  0  0  0  0  0  0  0
   34.0684   39.9481   56.1038 O   0  0  0  0  0  0  0  0  0  0  0  0
   32.5506   38.8450   60.1689 H   0  0  0  0  0  0  0  0  0  0  0  0
   33.6582   41.4878   58.2124 H   0  0  0  0  0  0  0  0  0  0  0  0
   33.0882   41.0672   59.7359 H   0  0  0  0  0  0  0  0  0  0  0  0
   33.2296   36.9632   57.0446 H   0  0  0  0  0  0  0  0  0  0  0  0
   34.0987   37.1422   54.5027 H   0  0  0  0  0  0  0  0  0  0  0  0
   34.6813   39.6582   54.0566 H   0  0  0  0  0  0  0  0  0  0  0  0
  1  2  2  0  0  0  0
  1  9  1  0  0  0  0
  2  3  1  0  0  0  0
  2  4  1  0  0  0  0
  3 10  1  0  0  0  0
  3 11  1  0  0  0  0
  4  8  1  0  0  0  0
  4  5  2  0  0  0  0
  5  6  1  0  0  0  0
  5 12  1  0  0  0  0
  6  7  2  0  0  0  0
  6 13  1  0  0  0  0
  7  8  1  0  0  0  0
  7 14  1  0  0  0  0
M  END
$$$$
