ZINC000000046317      none
 OpenBabel11202420153D

 25 26  0  0  0  0  0  0  0  0999 V2000
   29.3228   40.0628   66.9902 O   0  0  0  0  0  0  0  0  0  0  0  0
   28.8280   39.9413   65.8838 N   0  0  0  0  0  0  0  0  0  0  0  0
   27.6594   40.2339   65.7037 O   0  0  0  0  0  0  0  0  0  0  0  0
   29.6475   39.4378   64.7574 C   0  0  0  0  0  0  0  0  0  0  0  0
   30.9354   39.0910   64.8536 C   0  0  0  0  0  0  0  0  0  0  0  0
   31.5082   38.6428   63.6857 C   0  0  0  0  0  0  0  0  0  0  0  0
   30.6435   38.6452   62.6249 C   0  0  0  0  0  0  0  0  0  0  0  0
   30.9611   38.2400   61.3034 C   0  0  0  0  0  0  0  0  0  0  0  0
   32.1667   37.8205   61.0201 N   0  0  0  0  0  0  0  0  0  0  0  0
   32.5049   37.5351   59.7263 C   0  0  0  0  0  0  0  0  0  0  0  0
   32.3179   36.2474   59.2194 C   0  0  0  0  0  0  0  0  0  0  0  0
   32.6608   35.9663   57.9132 C   0  0  0  0  0  0  0  0  0  0  0  0
   33.1896   36.9556   57.1023 C   0  0  0  0  0  0  0  0  0  0  0  0
   33.3794   38.2345   57.5928 C   0  0  0  0  0  0  0  0  0  0  0  0
   33.0407   38.5335   58.9014 C   0  0  0  0  0  0  0  0  0  0  0  0
   33.2265   39.7901   59.3840 O   0  0  0  0  0  0  0  0  0  0  0  0
   29.0735   39.2241   63.1652 S   0  0  0  0  0  0  0  0  0  0  0  0
   31.4847   39.1542   65.7813 H   0  0  0  0  0  0  0  0  0  0  0  0
   32.5374   38.3239   63.6128 H   0  0  0  0  0  0  0  0  0  0  0  0
   30.2072   38.2781   60.5309 H   0  0  0  0  0  0  0  0  0  0  0  0
   31.9059   35.4729   59.8493 H   0  0  0  0  0  0  0  0  0  0  0  0
   32.5157   34.9703   57.5215 H   0  0  0  0  0  0  0  0  0  0  0  0
   33.4513   36.7285   56.0794 H   0  0  0  0  0  0  0  0  0  0  0  0
   33.7921   39.0013   56.9540 H   0  0  0  0  0  0  0  0  0  0  0  0
   32.9599   39.9004   60.3070 H   0  0  0  0  0  0  0  0  0  0  0  0
  1  2  2  0  0  0  0
  2  3  2  0  0  0  0
  2  4  1  0  0  0  0
  4 17  1  0  0  0  0
  4  5  2  0  0  0  0
  5  6  1  0  0  0  0
  5 18  1  0  0  0  0
  6  7  2  0  0  0  0
  6 19  1  0  0  0  0
  7  8  1  0  0  0  0
  7 17  1  0  0  0  0
  8  9  2  0  0  0  0
  8 20  1  0  0  0  0
  9 10  1  0  0  0  0
 10 15  2  0  0  0  0
 10 11  1  0  0  0  0
 11 12  2  0  0  0  0
 11 21  1  0  0  0  0
 12 13  1  0  0  0  0
 12 22  1  0  0  0  0
 13 14  2  0  0  0  0
 13 23  1  0  0  0  0
 14 15  1  0  0  0  0
 14 24  1  0  0  0  0
 15 16  1  0  0  0  0
 16 25  1  0  0  0  0
M  END
$$$$
