ZINC000000039270      none
 OpenBabel11202420153D

 42 44  0  0  0  0  0  0  0  0999 V2000
   32.8159   35.1105   52.4246 C   0  0  0  0  0  0  0  0  0  0  0  0
   33.8314   35.3955   53.3885 O   0  0  0  0  0  0  0  0  0  0  0  0
   33.4513   35.4320   54.6931 C   0  0  0  0  0  0  0  0  0  0  0  0
   33.0244   36.6256   55.2564 C   0  0  0  0  0  0  0  0  0  0  0  0
   32.6380   36.6680   56.5796 C   0  0  0  0  0  0  0  0  0  0  0  0
   32.6762   35.5078   57.3554 C   0  0  0  0  0  0  0  0  0  0  0  0
   32.2623   35.5513   58.7729 C   0  0  0  0  0  0  0  0  0  0  0  0
   32.2738   34.5227   59.5597 N   0  0  0  0  0  0  0  0  0  0  0  0
   31.8255   34.8857   60.8408 N   0  0  0  0  0  0  0  0  0  0  0  0
   31.6998   34.0895   61.9230 C   0  0  0  0  0  0  0  0  0  0  0  0
   32.0613   32.6295   61.8304 C   0  0  0  0  0  0  0  0  0  0  0  0
   31.2957   34.5492   62.9709 O   0  0  0  0  0  0  0  0  0  0  0  0
   31.5238   36.3168   60.7466 C   0  0  0  0  0  0  0  0  0  0  0  0
   32.3771   37.1231   61.7360 C   0  0  0  0  0  0  0  0  0  0  0  0
   31.4379   38.2677   62.1961 C   0  0  0  0  0  0  0  0  0  0  0  0
   30.0573   37.5689   62.2768 C   0  0  0  0  0  0  0  0  0  0  0  0
   30.0547   36.5945   61.0784 C   0  0  0  0  0  0  0  0  0  0  0  0
   31.8327   36.6733   59.3999 O   0  0  0  0  0  0  0  0  0  0  0  0
   33.1005   34.3050   56.7871 C   0  0  0  0  0  0  0  0  0  0  0  0
   33.4917   34.2707   55.4616 C   0  0  0  0  0  0  0  0  0  0  0  0
   33.9108   33.1021   54.9063 O   0  0  0  0  0  0  0  0  0  0  0  0
   35.3080   32.8121   54.9823 C   0  0  0  0  0  0  0  0  0  0  0  0
   32.3833   34.1315   52.6311 H   0  0  0  0  0  0  0  0  0  0  0  0
   32.0372   35.8711   52.4815 H   0  0  0  0  0  0  0  0  0  0  0  0
   33.2523   35.1114   51.4258 H   0  0  0  0  0  0  0  0  0  0  0  0
   32.9947   37.5239   54.6575 H   0  0  0  0  0  0  0  0  0  0  0  0
   32.3064   37.5988   57.0157 H   0  0  0  0  0  0  0  0  0  0  0  0
   33.1106   32.5319   61.5521 H   0  0  0  0  0  0  0  0  0  0  0  0
   31.8957   32.1521   62.7961 H   0  0  0  0  0  0  0  0  0  0  0  0
   31.4391   32.1483   61.0758 H   0  0  0  0  0  0  0  0  0  0  0  0
   32.6674   36.5029   62.5841 H   0  0  0  0  0  0  0  0  0  0  0  0
   33.2583   37.5284   61.2387 H   0  0  0  0  0  0  0  0  0  0  0  0
   31.4208   39.0722   61.4608 H   0  0  0  0  0  0  0  0  0  0  0  0
   31.7380   38.6438   63.1742 H   0  0  0  0  0  0  0  0  0  0  0  0
   29.2539   38.2988   62.1768 H   0  0  0  0  0  0  0  0  0  0  0  0
   29.9614   37.0209   63.2142 H   0  0  0  0  0  0  0  0  0  0  0  0
   29.5582   37.0539   60.2235 H   0  0  0  0  0  0  0  0  0  0  0  0
   29.5504   35.6672   61.3499 H   0  0  0  0  0  0  0  0  0  0  0  0
   33.1272   33.4045   57.3826 H   0  0  0  0  0  0  0  0  0  0  0  0
   35.8700   33.5958   54.4745 H   0  0  0  0  0  0  0  0  0  0  0  0
   35.5067   31.8536   54.5028 H   0  0  0  0  0  0  0  0  0  0  0  0
   35.6130   32.7654   56.0278 H   0  0  0  0  0  0  0  0  0  0  0  0
  1  2  1  0  0  0  0
  1 23  1  0  0  0  0
  1 24  1  0  0  0  0
  1 25  1  0  0  0  0
  2  3  1  0  0  0  0
  3 20  2  0  0  0  0
  3  4  1  0  0  0  0
  4  5  2  0  0  0  0
  4 26  1  0  0  0  0
  5  6  1  0  0  0  0
  5 27  1  0  0  0  0
  6  7  1  0  0  0  0
  6 19  2  0  0  0  0
  7 18  1  0  0  0  0
  7  8  2  0  0  0  0
  8  9  1  0  0  0  0
  9 10  1  0  0  0  0
  9 13  1  0  0  0  0
 10 11  1  0  0  0  0
 10 12  2  0  0  0  0
 11 28  1  0  0  0  0
 11 29  1  0  0  0  0
 11 30  1  0  0  0  0
 13 17  1  0  0  0  0
 13 14  1  0  0  0  0
 13 18  1  0  0  0  0
 14 15  1  0  0  0  0
 14 31  1  0  0  0  0
 14 32  1  0  0  0  0
 15 16  1  0  0  0  0
 15 33  1  0  0  0  0
 15 34  1  0  0  0  0
 16 17  1  0  0  0  0
 16 35  1  0  0  0  0
 16 36  1  0  0  0  0
 17 37  1  0  0  0  0
 17 38  1  0  0  0  0
 19 20  1  0  0  0  0
 19 39  1  0  0  0  0
 20 21  1  0  0  0  0
 21 22  1  0  0  0  0
 22 40  1  0  0  0  0
 22 41  1  0  0  0  0
 22 42  1  0  0  0  0
M  END
$$$$
