ZINC000000028520      none
 OpenBabel11202420163D

 43 45  0  0  0  0  0  0  0  0999 V2000
   31.0270   37.5121   61.5527 C   0  0  0  0  0  0  0  0  0  0  0  0
   31.3376   36.2811   60.7408 C   0  0  0  0  0  0  0  0  0  0  0  0
   31.8140   36.4049   59.4519 C   0  0  0  0  0  0  0  0  0  0  0  0
   32.0995   35.2758   58.7052 C   0  0  0  0  0  0  0  0  0  0  0  0
   31.9092   34.0157   59.2445 C   0  0  0  0  0  0  0  0  0  0  0  0
   31.4334   33.8778   60.5318 C   0  0  0  0  0  0  0  0  0  0  0  0
   31.1492   35.0131   61.2931 C   0  0  0  0  0  0  0  0  0  0  0  0
   30.6450   34.8729   62.6754 C   0  0  0  0  0  0  0  0  0  0  0  0
   31.3159   34.3007   63.5119 O   0  0  0  0  0  0  0  0  0  0  0  0
   29.4412   35.3797   63.0082 N   0  0  0  0  0  0  0  0  0  0  0  0
   28.9664   35.2475   64.3099 C   0  0  0  0  0  0  0  0  0  0  0  0
   28.2035   34.1432   64.6658 C   0  0  0  0  0  0  0  0  0  0  0  0
   27.7377   34.0119   65.9584 C   0  0  0  0  0  0  0  0  0  0  0  0
   28.0173   34.9829   66.9065 C   0  0  0  0  0  0  0  0  0  0  0  0
   28.7683   36.0883   66.5704 C   0  0  0  0  0  0  0  0  0  0  0  0
   29.2512   36.2325   65.2674 C   0  0  0  0  0  0  0  0  0  0  0  0
   30.0562   37.4130   64.9010 C   0  0  0  0  0  0  0  0  0  0  0  0
   29.6710   38.1634   64.0252 O   0  0  0  0  0  0  0  0  0  0  0  0
   31.2185   37.6599   65.5370 N   0  0  0  0  0  0  0  0  0  0  0  0
   31.7964   36.8427   66.6139 C   0  0  0  0  0  0  0  0  0  0  0  0
   33.1126   37.5211   67.0480 C   0  0  0  0  0  0  0  0  0  0  0  0
   32.9125   38.9895   66.5883 C   0  0  0  0  0  0  0  0  0  0  0  0
   32.1178   38.7977   65.2724 C   0  0  0  0  0  0  0  0  0  0  0  0
   29.9608   37.7296   61.4897 H   0  0  0  0  0  0  0  0  0  0  0  0
   31.3018   37.3399   62.5934 H   0  0  0  0  0  0  0  0  0  0  0  0
   31.5939   38.3573   61.1624 H   0  0  0  0  0  0  0  0  0  0  0  0
   31.9648   37.3855   59.0251 H   0  0  0  0  0  0  0  0  0  0  0  0
   32.4722   35.3783   57.6967 H   0  0  0  0  0  0  0  0  0  0  0  0
   32.1333   33.1382   58.6561 H   0  0  0  0  0  0  0  0  0  0  0  0
   31.2856   32.8937   60.9517 H   0  0  0  0  0  0  0  0  0  0  0  0
   28.9058   35.8364   62.3406 H   0  0  0  0  0  0  0  0  0  0  0  0
   27.9775   33.3843   63.9313 H   0  0  0  0  0  0  0  0  0  0  0  0
   27.1483   33.1492   66.2313 H   0  0  0  0  0  0  0  0  0  0  0  0
   27.6449   34.8728   67.9144 H   0  0  0  0  0  0  0  0  0  0  0  0
   28.9829   36.8424   67.3130 H   0  0  0  0  0  0  0  0  0  0  0  0
   31.1055   36.7967   67.4558 H   0  0  0  0  0  0  0  0  0  0  0  0
   32.0034   35.8376   66.2463 H   0  0  0  0  0  0  0  0  0  0  0  0
   33.9674   37.0718   66.5424 H   0  0  0  0  0  0  0  0  0  0  0  0
   33.2322   37.4688   68.1302 H   0  0  0  0  0  0  0  0  0  0  0  0
   33.8705   39.4737   66.3992 H   0  0  0  0  0  0  0  0  0  0  0  0
   32.3298   39.5513   67.3184 H   0  0  0  0  0  0  0  0  0  0  0  0
   32.7949   38.5631   64.4512 H   0  0  0  0  0  0  0  0  0  0  0  0
   31.5397   39.6928   65.0425 H   0  0  0  0  0  0  0  0  0  0  0  0
  1  2  1  0  0  0  0
  1 24  1  0  0  0  0
  1 25  1  0  0  0  0
  1 26  1  0  0  0  0
  2  7  2  0  0  0  0
  2  3  1  0  0  0  0
  3  4  2  0  0  0  0
  3 27  1  0  0  0  0
  4  5  1  0  0  0  0
  4 28  1  0  0  0  0
  5  6  2  0  0  0  0
  5 29  1  0  0  0  0
  6  7  1  0  0  0  0
  6 30  1  0  0  0  0
  7  8  1  0  0  0  0
  8  9  2  0  0  0  0
  8 10  1  0  0  0  0
 10 11  1  0  0  0  0
 10 31  1  0  0  0  0
 11 16  2  0  0  0  0
 11 12  1  0  0  0  0
 12 13  2  0  0  0  0
 12 32  1  0  0  0  0
 13 14  1  0  0  0  0
 13 33  1  0  0  0  0
 14 15  2  0  0  0  0
 14 34  1  0  0  0  0
 15 16  1  0  0  0  0
 15 35  1  0  0  0  0
 16 17  1  0  0  0  0
 17 18  2  0  0  0  0
 17 19  1  0  0  0  0
 19 23  1  0  0  0  0
 19 20  1  0  0  0  0
 20 21  1  0  0  0  0
 20 36  1  0  0  0  0
 20 37  1  0  0  0  0
 21 22  1  0  0  0  0
 21 38  1  0  0  0  0
 21 39  1  0  0  0  0
 22 23  1  0  0  0  0
 22 40  1  0  0  0  0
 22 41  1  0  0  0  0
 23 42  1  0  0  0  0
 23 43  1  0  0  0  0
M  END
$$$$
