ZINC000000034093      none
 OpenBabel11202420153D

 26 27  0  0  0  0  0  0  0  0999 V2000
   32.5297   35.6490   51.3965 C   0  0  0  0  0  0  0  0  0  0  0  0
   33.1053   34.4210   51.8463 O   0  0  0  0  0  0  0  0  0  0  0  0
   33.5425   34.3789   53.1334 C   0  0  0  0  0  0  0  0  0  0  0  0
   33.4145   35.4917   53.9434 C   0  0  0  0  0  0  0  0  0  0  0  0
   33.8645   35.4456   55.2655 C   0  0  0  0  0  0  0  0  0  0  0  0
   33.7307   36.6295   56.1331 C   0  0  0  0  0  0  0  0  0  0  0  0
   33.0338   36.5579   57.2258 N   0  0  0  0  0  0  0  0  0  0  0  0
   32.9067   37.6833   58.0505 N   0  0  0  0  0  0  0  0  0  0  0  0
   33.4541   38.9157   57.8503 C   0  0  0  0  0  0  0  0  0  0  0  0
   33.0865   39.6689   58.8520 N   0  0  0  0  0  0  0  0  0  0  0  0
   32.3564   38.9911   59.6643 N   0  0  0  0  0  0  0  0  0  0  0  0
   32.2149   37.7704   59.2220 C   0  0  0  0  0  0  0  0  0  0  0  0
   34.4424   34.2743   55.7629 C   0  0  0  0  0  0  0  0  0  0  0  0
   34.5670   33.1676   54.9488 C   0  0  0  0  0  0  0  0  0  0  0  0
   35.2849   31.7133   55.5679 Cl  0  0  0  0  0  0  0  0  0  0  0  0
   34.1142   33.2127   53.6368 C   0  0  0  0  0  0  0  0  0  0  0  0
   34.2336   32.1176   52.8404 O   0  0  0  0  0  0  0  0  0  0  0  0
   33.2660   36.4483   51.4819 H   0  0  0  0  0  0  0  0  0  0  0  0
   32.2235   35.5470   50.3554 H   0  0  0  0  0  0  0  0  0  0  0  0
   31.6606   35.8888   52.0090 H   0  0  0  0  0  0  0  0  0  0  0  0
   32.9669   36.3948   53.5552 H   0  0  0  0  0  0  0  0  0  0  0  0
   34.2126   37.5566   55.8597 H   0  0  0  0  0  0  0  0  0  0  0  0
   34.0741   39.2140   57.0179 H   0  0  0  0  0  0  0  0  0  0  0  0
   31.6548   36.9780   59.6960 H   0  0  0  0  0  0  0  0  0  0  0  0
   34.7915   34.2358   56.7841 H   0  0  0  0  0  0  0  0  0  0  0  0
   33.8945   32.2446   51.9438 H   0  0  0  0  0  0  0  0  0  0  0  0
  1  2  1  0  0  0  0
  1 18  1  0  0  0  0
  1 19  1  0  0  0  0
  1 20  1  0  0  0  0
  2  3  1  0  0  0  0
  3 16  2  0  0  0  0
  3  4  1  0  0  0  0
  4  5  2  0  0  0  0
  4 21  1  0  0  0  0
  5  6  1  0  0  0  0
  5 13  1  0  0  0  0
  6  7  2  0  0  0  0
  6 22  1  0  0  0  0
  7  8  1  0  0  0  0
  8 12  1  0  0  0  0
  8  9  1  0  0  0  0
  9 10  2  0  0  0  0
  9 23  1  0  0  0  0
 10 11  1  0  0  0  0
 11 12  2  0  0  0  0
 12 24  1  0  0  0  0
 13 14  2  0  0  0  0
 13 25  1  0  0  0  0
 14 15  1  0  0  0  0
 14 16  1  0  0  0  0
 16 17  1  0  0  0  0
 17 26  1  0  0  0  0
M  END
$$$$
