ZINC000000002932      none
 OpenBabel11202420153D

 43 45  0  0  1  0  0  0  0  0999 V2000
   33.2224   40.1147   58.2813 C   0  0  0  0  0  0  0  0  0  0  0  0
   32.3602   38.9981   57.6890 C   0  0  2  0  0  0  0  0  0  0  0  0
   31.3912   39.4032   57.3972 H   0  0  0  0  0  0  0  0  0  0  0  0
   32.1628   37.9159   58.7189 C   0  0  0  0  0  0  0  0  0  0  0  0
   32.5975   36.6278   58.4591 C   0  0  0  0  0  0  0  0  0  0  0  0
   32.4247   35.6291   59.4011 C   0  0  0  0  0  0  0  0  0  0  0  0
   31.8077   35.9092   60.6027 C   0  0  0  0  0  0  0  0  0  0  0  0
   31.3617   37.2055   60.8694 C   0  0  0  0  0  0  0  0  0  0  0  0
   30.7004   37.5131   62.1543 C   0  0  0  0  0  0  0  0  0  0  0  0
   29.5618   37.9384   62.1654 O   0  0  0  0  0  0  0  0  0  0  0  0
   31.4231   37.3037   63.4259 C   0  0  0  0  0  0  0  0  0  0  0  0
   32.7298   36.8100   63.4170 C   0  0  0  0  0  0  0  0  0  0  0  0
   33.4002   36.6220   64.6077 C   0  0  0  0  0  0  0  0  0  0  0  0
   32.7779   36.9113   65.8092 C   0  0  0  0  0  0  0  0  0  0  0  0
   31.4815   37.3954   65.8257 C   0  0  0  0  0  0  0  0  0  0  0  0
   30.8009   37.5932   64.6424 C   0  0  0  0  0  0  0  0  0  0  0  0
   31.5443   38.2101   59.9159 C   0  0  0  0  0  0  0  0  0  0  0  0
   33.0481   38.4203   56.4790 C   0  0  0  0  0  0  0  0  0  0  0  0
   32.6034   37.4488   55.7202 N   0  0  0  0  0  0  0  0  0  0  0  0
   33.5442   37.2725   54.7678 C   0  0  0  0  0  0  0  0  0  0  0  0
   33.5072   36.3453   53.7350 N   0  0  0  0  0  0  0  0  0  0  0  0
   32.3646   35.4375   53.6062 C   0  0  0  0  0  0  0  0  0  0  0  0
   34.6105   36.2750   52.7738 C   0  0  0  0  0  0  0  0  0  0  0  0
   34.4985   38.1334   55.0027 N   0  0  0  0  0  0  0  0  0  0  0  0
   34.2262   38.8026   55.9770 O   0  0  0  0  0  0  0  0  0  0  0  0
   33.3652   40.8975   57.5362 H   0  0  0  0  0  0  0  0  0  0  0  0
   32.7249   40.5325   59.1563 H   0  0  0  0  0  0  0  0  0  0  0  0
   34.1913   39.7096   58.5729 H   0  0  0  0  0  0  0  0  0  0  0  0
   33.0773   36.4020   57.5183 H   0  0  0  0  0  0  0  0  0  0  0  0
   32.7701   34.6271   59.1935 H   0  0  0  0  0  0  0  0  0  0  0  0
   31.6695   35.1277   61.3352 H   0  0  0  0  0  0  0  0  0  0  0  0
   33.2151   36.5796   62.4803 H   0  0  0  0  0  0  0  0  0  0  0  0
   34.4121   36.2441   64.6022 H   0  0  0  0  0  0  0  0  0  0  0  0
   33.3062   36.7583   66.7387 H   0  0  0  0  0  0  0  0  0  0  0  0
   31.0018   37.6191   66.7670 H   0  0  0  0  0  0  0  0  0  0  0  0
   29.7891   37.9706   64.6566 H   0  0  0  0  0  0  0  0  0  0  0  0
   31.2015   39.2146   60.1156 H   0  0  0  0  0  0  0  0  0  0  0  0
   32.5587   34.5267   54.1727 H   0  0  0  0  0  0  0  0  0  0  0  0
   32.2158   35.1874   52.5559 H   0  0  0  0  0  0  0  0  0  0  0  0
   31.4693   35.9230   53.9946 H   0  0  0  0  0  0  0  0  0  0  0  0
   34.4056   35.4936   52.0420 H   0  0  0  0  0  0  0  0  0  0  0  0
   34.7100   37.2334   52.2640 H   0  0  0  0  0  0  0  0  0  0  0  0
   35.5370   36.0457   53.3005 H   0  0  0  0  0  0  0  0  0  0  0  0
  1  2  1  0  0  0  0
  1 26  1  0  0  0  0
  1 27  1  0  0  0  0
  1 28  1  0  0  0  0
  2  3  1  6  0  0  0
  2  4  1  0  0  0  0
  2 18  1  0  0  0  0
  4 17  2  0  0  0  0
  4  5  1  0  0  0  0
  5  6  2  0  0  0  0
  5 29  1  0  0  0  0
  6  7  1  0  0  0  0
  6 30  1  0  0  0  0
  7  8  2  0  0  0  0
  7 31  1  0  0  0  0
  8  9  1  0  0  0  0
  8 17  1  0  0  0  0
  9 10  2  0  0  0  0
  9 11  1  0  0  0  0
 11 16  2  0  0  0  0
 11 12  1  0  0  0  0
 12 13  2  0  0  0  0
 12 32  1  0  0  0  0
 13 14  1  0  0  0  0
 13 33  1  0  0  0  0
 14 15  2  0  0  0  0
 14 34  1  0  0  0  0
 15 16  1  0  0  0  0
 15 35  1  0  0  0  0
 16 36  1  0  0  0  0
 17 37  1  0  0  0  0
 18 25  1  0  0  0  0
 18 19  2  0  0  0  0
 19 20  1  0  0  0  0
 20 21  1  0  0  0  0
 20 24  2  0  0  0  0
 21 22  1  0  0  0  0
 21 23  1  0  0  0  0
 22 38  1  0  0  0  0
 22 39  1  0  0  0  0
 22 40  1  0  0  0  0
 23 41  1  0  0  0  0
 23 42  1  0  0  0  0
 23 43  1  0  0  0  0
 24 25  1  0  0  0  0
M  END
$$$$
