ZINC000000054070      none
 OpenBabel11202420153D

 34 35  0  0  0  0  0  0  0  0999 V2000
   31.0664   38.0705   61.4312 C   0  0  0  0  0  0  0  0  0  0  0  0
   31.6867   37.3917   60.2373 C   0  0  0  0  0  0  0  0  0  0  0  0
   32.1785   38.2125   58.7638 S   0  0  0  0  0  0  0  0  0  0  0  0
   32.7346   36.7014   58.0571 C   0  0  0  0  0  0  0  0  0  0  0  0
   33.2853   36.5668   56.8314 N   0  0  0  0  0  0  0  0  0  0  0  0
   32.9418   37.3803   55.8677 C   0  0  0  0  0  0  0  0  0  0  0  0
   33.5412   37.2339   54.5333 C   0  0  0  0  0  0  0  0  0  0  0  0
   34.2696   38.2874   53.9695 C   0  0  0  0  0  0  0  0  0  0  0  0
   34.8325   38.1403   52.7201 C   0  0  0  0  0  0  0  0  0  0  0  0
   35.6075   39.2521   52.1248 N   0  0  0  0  0  0  0  0  0  0  0  0
   35.7469   40.2946   52.7390 O   0  0  0  0  0  0  0  0  0  0  0  0
   36.1058   39.1244   51.0207 O   0  0  0  0  0  0  0  0  0  0  0  0
   34.6715   36.9580   52.0181 C   0  0  0  0  0  0  0  0  0  0  0  0
   33.9481   35.9128   52.5645 C   0  0  0  0  0  0  0  0  0  0  0  0
   33.3817   36.0415   53.8169 C   0  0  0  0  0  0  0  0  0  0  0  0
   32.4740   34.7294   54.5011 Cl  0  0  0  0  0  0  0  0  0  0  0  0
   32.5158   35.6722   58.9544 C   0  0  0  0  0  0  0  0  0  0  0  0
   32.8649   34.2748   58.6749 C   0  0  0  0  0  0  0  0  0  0  0  0
   33.4276   33.9436   57.4958 N   0  0  0  0  0  0  0  0  0  0  0  0
   32.6464   33.4147   59.5078 O   0  0  0  0  0  0  0  0  0  0  0  0
   31.9370   36.0900   60.1532 C   0  0  0  0  0  0  0  0  0  0  0  0
   31.6179   35.1326   61.2724 C   0  0  0  0  0  0  0  0  0  0  0  0
   31.8516   38.3881   62.1173 H   0  0  0  0  0  0  0  0  0  0  0  0
   30.4992   38.9405   61.1005 H   0  0  0  0  0  0  0  0  0  0  0  0
   30.3998   37.3739   61.9396 H   0  0  0  0  0  0  0  0  0  0  0  0
   32.2176   38.1602   56.0516 H   0  0  0  0  0  0  0  0  0  0  0  0
   34.3932   39.2120   54.5137 H   0  0  0  0  0  0  0  0  0  0  0  0
   35.1113   36.8513   51.0375 H   0  0  0  0  0  0  0  0  0  0  0  0
   33.8264   34.9940   52.0101 H   0  0  0  0  0  0  0  0  0  0  0  0
   33.6584   33.0198   57.3110 H   0  0  0  0  0  0  0  0  0  0  0  0
   33.5981   34.6286   56.8304 H   0  0  0  0  0  0  0  0  0  0  0  0
   32.4759   35.0554   61.9402 H   0  0  0  0  0  0  0  0  0  0  0  0
   30.7558   35.4993   61.8295 H   0  0  0  0  0  0  0  0  0  0  0  0
   31.3913   34.1507   60.8570 H   0  0  0  0  0  0  0  0  0  0  0  0
  1  2  1  0  0  0  0
  1 23  1  0  0  0  0
  1 24  1  0  0  0  0
  1 25  1  0  0  0  0
  2 21  2  0  0  0  0
  2  3  1  0  0  0  0
  3  4  1  0  0  0  0
  4  5  1  0  0  0  0
  4 17  2  0  0  0  0
  5  6  2  0  0  0  0
  6  7  1  0  0  0  0
  6 26  1  0  0  0  0
  7 15  2  0  0  0  0
  7  8  1  0  0  0  0
  8  9  2  0  0  0  0
  8 27  1  0  0  0  0
  9 10  1  0  0  0  0
  9 13  1  0  0  0  0
 10 11  2  0  0  0  0
 10 12  2  0  0  0  0
 13 14  2  0  0  0  0
 13 28  1  0  0  0  0
 14 15  1  0  0  0  0
 14 29  1  0  0  0  0
 15 16  1  0  0  0  0
 17 18  1  0  0  0  0
 17 21  1  0  0  0  0
 18 19  1  0  0  0  0
 18 20  2  0  0  0  0
 19 30  1  0  0  0  0
 19 31  1  0  0  0  0
 21 22  1  0  0  0  0
 22 32  1  0  0  0  0
 22 33  1  0  0  0  0
 22 34  1  0  0  0  0
M  END
$$$$
