ZINC000000053358      none
 OpenBabel11202420153D

 41 43  0  0  0  0  0  0  0  0999 V2000
   33.8256   35.3139   71.3312 C   0  0  0  0  0  0  0  0  0  0  0  0
   32.9730   35.1247   70.1031 C   0  0  0  0  0  0  0  0  0  0  0  0
   32.1430   34.2410   70.0714 O   0  0  0  0  0  0  0  0  0  0  0  0
   33.1329   35.9376   69.0400 N   0  0  0  0  0  0  0  0  0  0  0  0
   32.3485   35.7635   67.9103 C   0  0  0  0  0  0  0  0  0  0  0  0
   31.1566   34.5581   67.7394 S   0  0  0  0  0  0  0  0  0  0  0  0
   30.7366   35.0864   66.1200 C   0  0  0  0  0  0  0  0  0  0  0  0
   31.4913   36.1285   65.7517 C   0  0  0  0  0  0  0  0  0  0  0  0
   31.3787   36.7982   64.4341 C   0  0  0  0  0  0  0  0  0  0  0  0
   31.0468   38.1504   64.3623 C   0  0  0  0  0  0  0  0  0  0  0  0
   30.9495   38.7698   63.1330 C   0  0  0  0  0  0  0  0  0  0  0  0
   31.1691   38.0490   61.9730 C   0  0  0  0  0  0  0  0  0  0  0  0
   31.4928   36.7056   62.0377 C   0  0  0  0  0  0  0  0  0  0  0  0
   31.5989   36.0768   63.2614 C   0  0  0  0  0  0  0  0  0  0  0  0
   32.4328   36.5333   66.7821 C   0  0  0  0  0  0  0  0  0  0  0  0
   33.3717   37.6472   66.6294 C   0  0  0  0  0  0  0  0  0  0  0  0
   34.1993   37.6278   65.7370 O   0  0  0  0  0  0  0  0  0  0  0  0
   33.3193   38.6938   67.4772 N   0  0  0  0  0  0  0  0  0  0  0  0
   34.2560   39.8212   67.3476 C   0  0  0  0  0  0  0  0  0  0  0  0
   33.4404   41.1241   67.3456 C   0  0  0  0  0  0  0  0  0  0  0  0
   32.5813   41.1412   68.4881 O   0  0  0  0  0  0  0  0  0  0  0  0
   31.6095   40.0928   68.5055 C   0  0  0  0  0  0  0  0  0  0  0  0
   32.3278   38.7398   68.5635 C   0  0  0  0  0  0  0  0  0  0  0  0
   33.3304   36.0038   72.0145 H   0  0  0  0  0  0  0  0  0  0  0  0
   33.9691   34.3531   71.8255 H   0  0  0  0  0  0  0  0  0  0  0  0
   34.7942   35.7218   71.0418 H   0  0  0  0  0  0  0  0  0  0  0  0
   33.7966   36.6444   69.0653 H   0  0  0  0  0  0  0  0  0  0  0  0
   29.9763   34.6304   65.5032 H   0  0  0  0  0  0  0  0  0  0  0  0
   30.8704   38.7130   65.2672 H   0  0  0  0  0  0  0  0  0  0  0  0
   30.6968   39.8183   63.0763 H   0  0  0  0  0  0  0  0  0  0  0  0
   31.0879   38.5371   61.0129 H   0  0  0  0  0  0  0  0  0  0  0  0
   31.6632   36.1479   61.1286 H   0  0  0  0  0  0  0  0  0  0  0  0
   31.8524   35.0282   63.3108 H   0  0  0  0  0  0  0  0  0  0  0  0
   34.9499   39.8204   68.1882 H   0  0  0  0  0  0  0  0  0  0  0  0
   34.8104   39.7323   66.4134 H   0  0  0  0  0  0  0  0  0  0  0  0
   32.8398   41.1792   66.4377 H   0  0  0  0  0  0  0  0  0  0  0  0
   34.1177   41.9771   67.3865 H   0  0  0  0  0  0  0  0  0  0  0  0
   31.0022   40.1441   67.6019 H   0  0  0  0  0  0  0  0  0  0  0  0
   30.9695   40.2030   69.3810 H   0  0  0  0  0  0  0  0  0  0  0  0
   31.6045   37.9344   68.4348 H   0  0  0  0  0  0  0  0  0  0  0  0
   32.8308   38.6320   69.5245 H   0  0  0  0  0  0  0  0  0  0  0  0
  1  2  1  0  0  0  0
  1 24  1  0  0  0  0
  1 25  1  0  0  0  0
  1 26  1  0  0  0  0
  2  3  2  0  0  0  0
  2  4  1  0  0  0  0
  4  5  1  0  0  0  0
  4 27  1  0  0  0  0
  5 15  2  0  0  0  0
  5  6  1  0  0  0  0
  6  7  1  0  0  0  0
  7  8  2  0  0  0  0
  7 28  1  0  0  0  0
  8  9  1  0  0  0  0
  8 15  1  0  0  0  0
  9 14  2  0  0  0  0
  9 10  1  0  0  0  0
 10 11  2  0  0  0  0
 10 29  1  0  0  0  0
 11 12  1  0  0  0  0
 11 30  1  0  0  0  0
 12 13  2  0  0  0  0
 12 31  1  0  0  0  0
 13 14  1  0  0  0  0
 13 32  1  0  0  0  0
 14 33  1  0  0  0  0
 15 16  1  0  0  0  0
 16 17  2  0  0  0  0
 16 18  1  0  0  0  0
 18 23  1  0  0  0  0
 18 19  1  0  0  0  0
 19 20  1  0  0  0  0
 19 34  1  0  0  0  0
 19 35  1  0  0  0  0
 20 21  1  0  0  0  0
 20 36  1  0  0  0  0
 20 37  1  0  0  0  0
 21 22  1  0  0  0  0
 22 23  1  0  0  0  0
 22 38  1  0  0  0  0
 22 39  1  0  0  0  0
 23 40  1  0  0  0  0
 23 41  1  0  0  0  0
M  END
$$$$
