ZINC000000006481      none
 OpenBabel11202420153D

 20 21  0  0  0  0  0  0  0  0999 V2000
   33.1928   40.7625   58.8206 N   0  0  0  0  0  0  0  0  0  0  0  0
   33.1907   39.5345   58.1890 C   0  0  0  0  0  0  0  0  0  0  0  0
   33.5522   39.3345   56.9689 N   0  0  0  0  0  0  0  0  0  0  0  0
   33.4979   38.0724   56.4937 C   0  0  0  0  0  0  0  0  0  0  0  0
   33.8390   37.5987   55.2093 C   0  0  0  0  0  0  0  0  0  0  0  0
   33.7129   36.2679   54.9016 C   0  0  0  0  0  0  0  0  0  0  0  0
   33.2465   35.3640   55.8508 C   0  0  0  0  0  0  0  0  0  0  0  0
   33.1252   34.0467   55.5355 O   0  0  0  0  0  0  0  0  0  0  0  0
   34.3150   33.3626   55.1375 C   0  0  0  0  0  0  0  0  0  0  0  0
   35.4199   33.9412   55.7715 F   0  0  0  0  0  0  0  0  0  0  0  0
   34.2218   32.0149   55.5010 F   0  0  0  0  0  0  0  0  0  0  0  0
   34.4682   33.4620   53.7505 F   0  0  0  0  0  0  0  0  0  0  0  0
   32.9061   35.8074   57.1141 C   0  0  0  0  0  0  0  0  0  0  0  0
   33.0301   37.1560   57.4393 C   0  0  0  0  0  0  0  0  0  0  0  0
   32.6872   38.0239   58.9339 S   0  0  0  0  0  0  0  0  0  0  0  0
   32.9014   40.8340   59.7430 H   0  0  0  0  0  0  0  0  0  0  0  0
   33.4895   41.5529   58.3429 H   0  0  0  0  0  0  0  0  0  0  0  0
   34.2028   38.2892   54.4627 H   0  0  0  0  0  0  0  0  0  0  0  0
   33.9781   35.9189   53.9146 H   0  0  0  0  0  0  0  0  0  0  0  0
   32.5436   35.1065   57.8514 H   0  0  0  0  0  0  0  0  0  0  0  0
  1  2  1  0  0  0  0
  1 16  1  0  0  0  0
  1 17  1  0  0  0  0
  2 15  1  0  0  0  0
  2  3  2  0  0  0  0
  3  4  1  0  0  0  0
  4 14  2  0  0  0  0
  4  5  1  0  0  0  0
  5  6  2  0  0  0  0
  5 18  1  0  0  0  0
  6  7  1  0  0  0  0
  6 19  1  0  0  0  0
  7  8  1  0  0  0  0
  7 13  2  0  0  0  0
  8  9  1  0  0  0  0
  9 10  1  0  0  0  0
  9 11  1  0  0  0  0
  9 12  1  0  0  0  0
 13 14  1  0  0  0  0
 13 20  1  0  0  0  0
 14 15  1  0  0  0  0
M  END
$$$$
