ZINC000000052902      none
 OpenBabel11202420153D

 26 27  0  0  0  0  0  0  0  0999 V2000
   35.3123   30.4520   55.5249 N   0  0  0  0  0  0  0  0  0  0  0  0
   34.5544   31.5411   55.1211 C   0  0  0  0  0  0  0  0  0  0  0  0
   33.4602   31.9673   55.6847 N   0  0  0  0  0  0  0  0  0  0  0  0
   32.8989   32.9780   55.1813 N   0  0  0  0  0  0  0  0  0  0  0  0
   33.4457   33.5214   54.1429 C   0  0  0  0  0  0  0  0  0  0  0  0
   32.9332   34.7279   53.3993 C   0  0  0  0  0  0  0  0  0  0  0  0
   32.5232   35.8085   54.4018 C   0  0  0  0  0  0  0  0  0  0  0  0
   33.9601   36.2807   55.4033 S   0  0  0  0  0  0  0  0  0  0  0  0
   33.2351   36.7537   56.9381 C   0  0  0  0  0  0  0  0  0  0  0  0
   33.4154   38.0424   57.4256 C   0  0  0  0  0  0  0  0  0  0  0  0
   32.8412   38.4116   58.6259 C   0  0  0  0  0  0  0  0  0  0  0  0
   32.0964   37.4962   59.3487 C   0  0  0  0  0  0  0  0  0  0  0  0
   31.3189   38.0035   60.9962 Br  0  0  0  0  0  0  0  0  0  0  0  0
   31.9199   36.2104   58.8688 C   0  0  0  0  0  0  0  0  0  0  0  0
   32.4867   35.8368   57.6665 C   0  0  0  0  0  0  0  0  0  0  0  0
   34.8943   32.5946   53.7465 S   0  0  0  0  0  0  0  0  0  0  0  0
   35.0386   29.9293   56.2950 H   0  0  0  0  0  0  0  0  0  0  0  0
   36.1160   30.2129   55.0374 H   0  0  0  0  0  0  0  0  0  0  0  0
   33.7181   35.1144   52.7493 H   0  0  0  0  0  0  0  0  0  0  0  0
   32.0699   34.4441   52.7976 H   0  0  0  0  0  0  0  0  0  0  0  0
   32.1526   36.6812   53.8641 H   0  0  0  0  0  0  0  0  0  0  0  0
   31.7383   35.4221   55.0520 H   0  0  0  0  0  0  0  0  0  0  0  0
   34.0005   38.7558   56.8642 H   0  0  0  0  0  0  0  0  0  0  0  0
   32.9774   39.4143   59.0033 H   0  0  0  0  0  0  0  0  0  0  0  0
   31.3384   35.4983   59.4355 H   0  0  0  0  0  0  0  0  0  0  0  0
   32.3488   34.8330   57.2926 H   0  0  0  0  0  0  0  0  0  0  0  0
  1  2  1  0  0  0  0
  1 17  1  0  0  0  0
  1 18  1  0  0  0  0
  2 16  1  0  0  0  0
  2  3  2  0  0  0  0
  3  4  1  0  0  0  0
  4  5  2  0  0  0  0
  5  6  1  0  0  0  0
  5 16  1  0  0  0  0
  6  7  1  0  0  0  0
  6 19  1  0  0  0  0
  6 20  1  0  0  0  0
  7  8  1  0  0  0  0
  7 21  1  0  0  0  0
  7 22  1  0  0  0  0
  8  9  1  0  0  0  0
  9 15  2  0  0  0  0
  9 10  1  0  0  0  0
 10 11  2  0  0  0  0
 10 23  1  0  0  0  0
 11 12  1  0  0  0  0
 11 24  1  0  0  0  0
 12 13  1  0  0  0  0
 12 14  2  0  0  0  0
 14 15  1  0  0  0  0
 14 25  1  0  0  0  0
 15 26  1  0  0  0  0
M  END
$$$$
