ZINC000000016355      none
 OpenBabel11202420153D

 17 17  0  0  0  0  0  0  0  0999 V2000
   33.5234   35.9054   54.9907 C   0  0  0  0  0  0  0  0  0  0  0  0
   33.1741   36.3852   56.3378 C   0  0  0  0  0  0  0  0  0  0  0  0
   32.8956   36.7677   57.4121 C   0  0  0  0  0  0  0  0  0  0  0  0
   32.5557   37.2344   58.7226 C   0  0  0  0  0  0  0  0  0  0  0  0
   32.0359   36.3839   59.6562 C   0  0  0  0  0  0  0  0  0  0  0  0
   31.7220   36.8594   60.8966 N   0  0  0  0  0  0  0  0  0  0  0  0
   31.3529   36.2534   61.5581 H   0  0  0  0  0  0  0  0  0  0  0  0
   31.9131   38.1485   61.2206 C   0  0  0  0  0  0  0  0  0  0  0  0
   31.6178   38.5265   62.3378 O   0  0  0  0  0  0  0  0  0  0  0  0
   32.4211   39.0332   60.3449 N   0  0  0  0  0  0  0  0  0  0  0  0
   32.5469   39.9575   60.6109 H   0  0  0  0  0  0  0  0  0  0  0  0
   32.7631   38.6403   59.0998 C   0  0  0  0  0  0  0  0  0  0  0  0
   33.2284   39.4348   58.3037 O   0  0  0  0  0  0  0  0  0  0  0  0
   33.9197   36.7326   54.4018 H   0  0  0  0  0  0  0  0  0  0  0  0
   34.2765   35.1213   55.0682 H   0  0  0  0  0  0  0  0  0  0  0  0
   32.6329   35.5072   54.5045 H   0  0  0  0  0  0  0  0  0  0  0  0
   31.8740   35.3437   59.4149 H   0  0  0  0  0  0  0  0  0  0  0  0
  1  2  1  0  0  0  0
  1 14  1  0  0  0  0
  1 15  1  0  0  0  0
  1 16  1  0  0  0  0
  2  3  3  0  0  0  0
  3  4  1  0  0  0  0
  4 12  1  0  0  0  0
  4  5  2  0  0  0  0
  5  6  1  0  0  0  0
  5 17  1  0  0  0  0
  6  7  1  0  0  0  0
  6  8  1  0  0  0  0
  8  9  2  0  0  0  0
  8 10  1  0  0  0  0
 10 11  1  0  0  0  0
 10 12  1  0  0  0  0
 12 13  2  0  0  0  0
M  END
$$$$
