ZINC000000031463      none
 OpenBabel11202420163D

 37 38  0  0  0  0  0  0  0  0999 V2000
   34.1414   37.7896   55.0885 C   0  0  0  0  0  0  0  0  0  0  0  0
   33.6756   38.0654   56.4948 C   0  0  0  0  0  0  0  0  0  0  0  0
   33.5517   39.3697   56.9373 C   0  0  0  0  0  0  0  0  0  0  0  0
   33.1250   39.6259   58.2256 C   0  0  0  0  0  0  0  0  0  0  0  0
   32.8202   38.5720   59.0770 C   0  0  0  0  0  0  0  0  0  0  0  0
   32.3876   38.8282   60.3829 N   0  0  0  0  0  0  0  0  0  0  0  0
   31.1775   38.3957   60.7888 C   0  0  0  0  0  0  0  0  0  0  0  0
   30.4634   37.7844   60.0224 O   0  0  0  0  0  0  0  0  0  0  0  0
   30.7116   38.6718   62.1952 C   0  0  0  0  0  0  0  0  0  0  0  0
   30.4569   37.4000   62.8852 N   0  0  0  0  0  0  0  0  0  0  0  0
   30.5653   37.5603   64.3409 C   0  0  0  0  0  0  0  0  0  0  0  0
   30.4390   36.1930   65.0167 C   0  0  0  0  0  0  0  0  0  0  0  0
   29.0878   35.5717   64.6519 C   0  0  0  0  0  0  0  0  0  0  0  0
   28.9806   35.4607   63.1286 C   0  0  0  0  0  0  0  0  0  0  0  0
   29.1492   36.8492   62.5076 C   0  0  0  0  0  0  0  0  0  0  0  0
   32.9511   37.2633   58.6315 C   0  0  0  0  0  0  0  0  0  0  0  0
   33.3724   37.0138   57.3401 C   0  0  0  0  0  0  0  0  0  0  0  0
   35.2280   37.7049   55.0757 H   0  0  0  0  0  0  0  0  0  0  0  0
   33.7002   36.8573   54.7359 H   0  0  0  0  0  0  0  0  0  0  0  0
   33.8330   38.6069   54.4366 H   0  0  0  0  0  0  0  0  0  0  0  0
   33.7892   40.1889   56.2748 H   0  0  0  0  0  0  0  0  0  0  0  0
   33.0281   40.6448   58.5704 H   0  0  0  0  0  0  0  0  0  0  0  0
   32.9587   39.3171   60.9958 H   0  0  0  0  0  0  0  0  0  0  0  0
   29.7938   39.2590   62.1653 H   0  0  0  0  0  0  0  0  0  0  0  0
   31.4813   39.2278   62.7305 H   0  0  0  0  0  0  0  0  0  0  0  0
   29.7689   38.2152   64.6945 H   0  0  0  0  0  0  0  0  0  0  0  0
   31.5323   37.9990   64.5870 H   0  0  0  0  0  0  0  0  0  0  0  0
   30.5038   36.3142   66.0980 H   0  0  0  0  0  0  0  0  0  0  0  0
   31.2432   35.5420   64.6739 H   0  0  0  0  0  0  0  0  0  0  0  0
   29.0116   34.5792   65.0958 H   0  0  0  0  0  0  0  0  0  0  0  0
   28.2831   36.2031   65.0287 H   0  0  0  0  0  0  0  0  0  0  0  0
   29.7620   34.7980   62.7561 H   0  0  0  0  0  0  0  0  0  0  0  0
   28.0035   35.0585   62.8609 H   0  0  0  0  0  0  0  0  0  0  0  0
   28.3595   37.5073   62.8697 H   0  0  0  0  0  0  0  0  0  0  0  0
   29.0876   36.7713   61.4220 H   0  0  0  0  0  0  0  0  0  0  0  0
   32.7191   36.4414   59.2927 H   0  0  0  0  0  0  0  0  0  0  0  0
   33.4698   35.9963   56.9915 H   0  0  0  0  0  0  0  0  0  0  0  0
  1  2  1  0  0  0  0
  1 18  1  0  0  0  0
  1 19  1  0  0  0  0
  1 20  1  0  0  0  0
  2 17  2  0  0  0  0
  2  3  1  0  0  0  0
  3  4  2  0  0  0  0
  3 21  1  0  0  0  0
  4  5  1  0  0  0  0
  4 22  1  0  0  0  0
  5  6  1  0  0  0  0
  5 16  2  0  0  0  0
  6  7  1  0  0  0  0
  6 23  1  0  0  0  0
  7  8  2  0  0  0  0
  7  9  1  0  0  0  0
  9 10  1  0  0  0  0
  9 24  1  0  0  0  0
  9 25  1  0  0  0  0
 10 15  1  0  0  0  0
 10 11  1  0  0  0  0
 11 12  1  0  0  0  0
 11 26  1  0  0  0  0
 11 27  1  0  0  0  0
 12 13  1  0  0  0  0
 12 28  1  0  0  0  0
 12 29  1  0  0  0  0
 13 14  1  0  0  0  0
 13 30  1  0  0  0  0
 13 31  1  0  0  0  0
 14 15  1  0  0  0  0
 14 32  1  0  0  0  0
 14 33  1  0  0  0  0
 15 34  1  0  0  0  0
 15 35  1  0  0  0  0
 16 17  1  0  0  0  0
 16 36  1  0  0  0  0
 17 37  1  0  0  0  0
M  END
$$$$
