ZINC000000051806      none
 OpenBabel11202420153D

 26 27  0  0  0  0  0  0  0  0999 V2000
   31.6495   36.0451   60.9256 C   0  0  0  0  0  0  0  0  0  0  0  0
   32.1171   37.4434   60.5169 C   0  0  0  0  0  0  0  0  0  0  0  0
   32.5782   37.4152   59.1648 O   0  0  0  0  0  0  0  0  0  0  0  0
   33.0284   38.5767   58.6467 C   0  0  0  0  0  0  0  0  0  0  0  0
   33.0289   39.5859   59.3260 O   0  0  0  0  0  0  0  0  0  0  0  0
   33.5163   38.6226   57.2677 C   0  0  0  0  0  0  0  0  0  0  0  0
   33.5868   37.6049   56.3971 C   0  0  0  0  0  0  0  0  0  0  0  0
   33.1356   36.2222   56.7920 C   0  0  0  0  0  0  0  0  0  0  0  0
   34.0711   37.8478   55.1470 N   0  0  0  0  0  0  0  0  0  0  0  0
   34.3157   37.0573   53.9107 C   0  0  0  0  0  0  0  0  0  0  0  0
   34.8963   38.0856   52.9268 C   0  0  0  0  0  0  0  0  0  0  0  0
   34.9219   39.3356   53.6916 N   0  0  0  0  0  0  0  0  0  0  0  0
   34.4585   39.1362   54.8953 C   0  0  0  0  0  0  0  0  0  0  0  0
   34.1457   40.0322   56.3993 S   0  0  0  0  0  0  0  0  0  0  0  0
   30.8374   35.7278   60.2714 H   0  0  0  0  0  0  0  0  0  0  0  0
   32.4802   35.3446   60.8395 H   0  0  0  0  0  0  0  0  0  0  0  0
   31.2977   36.0667   61.9571 H   0  0  0  0  0  0  0  0  0  0  0  0
   31.2864   38.1438   60.6029 H   0  0  0  0  0  0  0  0  0  0  0  0
   32.9291   37.7607   61.1712 H   0  0  0  0  0  0  0  0  0  0  0  0
   32.0639   36.2326   56.9902 H   0  0  0  0  0  0  0  0  0  0  0  0
   33.3486   35.5253   55.9814 H   0  0  0  0  0  0  0  0  0  0  0  0
   33.6682   35.9090   57.6899 H   0  0  0  0  0  0  0  0  0  0  0  0
   35.0355   36.2613   54.1015 H   0  0  0  0  0  0  0  0  0  0  0  0
   33.3818   36.6443   53.5295 H   0  0  0  0  0  0  0  0  0  0  0  0
   35.9047   37.8003   52.6271 H   0  0  0  0  0  0  0  0  0  0  0  0
   34.2524   38.1836   52.0527 H   0  0  0  0  0  0  0  0  0  0  0  0
  1  2  1  0  0  0  0
  1 15  1  0  0  0  0
  1 16  1  0  0  0  0
  1 17  1  0  0  0  0
  2  3  1  0  0  0  0
  2 18  1  0  0  0  0
  2 19  1  0  0  0  0
  3  4  1  0  0  0  0
  4  5  2  0  0  0  0
  4  6  1  0  0  0  0
  6 14  1  0  0  0  0
  6  7  2  0  0  0  0
  7  8  1  0  0  0  0
  7  9  1  0  0  0  0
  8 20  1  0  0  0  0
  8 21  1  0  0  0  0
  8 22  1  0  0  0  0
  9 13  1  0  0  0  0
  9 10  1  0  0  0  0
 10 11  1  0  0  0  0
 10 23  1  0  0  0  0
 10 24  1  0  0  0  0
 11 12  1  0  0  0  0
 11 25  1  0  0  0  0
 11 26  1  0  0  0  0
 12 13  2  0  0  0  0
 13 14  1  0  0  0  0
M  END
$$$$
