ZINC000000049892      none
 OpenBabel11202420153D

 38 39  0  0  0  0  0  0  0  0999 V2000
   34.0181   38.1262   55.3111 C   0  0  0  0  0  0  0  0  0  0  0  0
   33.5555   38.2809   56.6543 O   0  0  0  0  0  0  0  0  0  0  0  0
   33.2176   37.1491   57.3244 C   0  0  0  0  0  0  0  0  0  0  0  0
   32.7608   37.2296   58.6339 C   0  0  0  0  0  0  0  0  0  0  0  0
   32.4174   36.0838   59.3175 C   0  0  0  0  0  0  0  0  0  0  0  0
   32.5291   34.8396   58.6918 C   0  0  0  0  0  0  0  0  0  0  0  0
   32.1631   33.6101   59.4199 C   0  0  0  0  0  0  0  0  0  0  0  0
   31.7376   33.6829   60.6403 N   0  0  0  0  0  0  0  0  0  0  0  0
   31.4355   32.6678   61.2415 O   0  0  0  0  0  0  0  0  0  0  0  0
   31.0004   32.8137   62.5072 C   0  0  0  0  0  0  0  0  0  0  0  0
   30.6843   31.8369   63.1574 O   0  0  0  0  0  0  0  0  0  0  0  0
   30.9154   34.0429   63.0532 N   0  0  0  0  0  0  0  0  0  0  0  0
   30.4625   34.1946   64.3708 C   0  0  0  0  0  0  0  0  0  0  0  0
   29.5566   33.2893   64.9034 C   0  0  0  0  0  0  0  0  0  0  0  0
   29.1118   33.4407   66.2031 C   0  0  0  0  0  0  0  0  0  0  0  0
   29.5676   34.4934   66.9753 C   0  0  0  0  0  0  0  0  0  0  0  0
   30.4706   35.3995   66.4512 C   0  0  0  0  0  0  0  0  0  0  0  0
   30.9216   35.2545   65.1494 C   0  0  0  0  0  0  0  0  0  0  0  0
   31.8106   36.1446   64.6329 O   0  0  0  0  0  0  0  0  0  0  0  0
   32.2376   37.2061   65.4889 C   0  0  0  0  0  0  0  0  0  0  0  0
   32.9940   34.7627   57.3764 C   0  0  0  0  0  0  0  0  0  0  0  0
   33.3303   35.9139   56.6984 C   0  0  0  0  0  0  0  0  0  0  0  0
   34.9128   37.5037   55.3046 H   0  0  0  0  0  0  0  0  0  0  0  0
   33.2411   37.6518   54.7117 H   0  0  0  0  0  0  0  0  0  0  0  0
   34.2532   39.1049   54.8928 H   0  0  0  0  0  0  0  0  0  0  0  0
   32.6750   38.1918   59.1169 H   0  0  0  0  0  0  0  0  0  0  0  0
   32.0627   36.1472   60.3355 H   0  0  0  0  0  0  0  0  0  0  0  0
   32.2501   32.6491   58.9349 H   0  0  0  0  0  0  0  0  0  0  0  0
   31.1677   34.8227   62.5342 H   0  0  0  0  0  0  0  0  0  0  0  0
   29.2023   32.4637   64.3040 H   0  0  0  0  0  0  0  0  0  0  0  0
   28.4061   32.7354   66.6165 H   0  0  0  0  0  0  0  0  0  0  0  0
   29.2170   34.6080   67.9903 H   0  0  0  0  0  0  0  0  0  0  0  0
   30.8248   36.2206   67.0570 H   0  0  0  0  0  0  0  0  0  0  0  0
   32.9436   37.8420   64.9547 H   0  0  0  0  0  0  0  0  0  0  0  0
   31.3739   37.7975   65.7929 H   0  0  0  0  0  0  0  0  0  0  0  0
   32.7210   36.7885   66.3721 H   0  0  0  0  0  0  0  0  0  0  0  0
   33.0858   33.8025   56.8906 H   0  0  0  0  0  0  0  0  0  0  0  0
   33.6861   35.8557   55.6804 H   0  0  0  0  0  0  0  0  0  0  0  0
  1  2  1  0  0  0  0
  1 23  1  0  0  0  0
  1 24  1  0  0  0  0
  1 25  1  0  0  0  0
  2  3  1  0  0  0  0
  3 22  2  0  0  0  0
  3  4  1  0  0  0  0
  4  5  2  0  0  0  0
  4 26  1  0  0  0  0
  5  6  1  0  0  0  0
  5 27  1  0  0  0  0
  6  7  1  0  0  0  0
  6 21  2  0  0  0  0
  7  8  2  0  0  0  0
  7 28  1  0  0  0  0
  8  9  1  0  0  0  0
  9 10  1  0  0  0  0
 10 11  2  0  0  0  0
 10 12  1  0  0  0  0
 12 13  1  0  0  0  0
 12 29  1  0  0  0  0
 13 18  2  0  0  0  0
 13 14  1  0  0  0  0
 14 15  2  0  0  0  0
 14 30  1  0  0  0  0
 15 16  1  0  0  0  0
 15 31  1  0  0  0  0
 16 17  2  0  0  0  0
 16 32  1  0  0  0  0
 17 18  1  0  0  0  0
 17 33  1  0  0  0  0
 18 19  1  0  0  0  0
 19 20  1  0  0  0  0
 20 34  1  0  0  0  0
 20 35  1  0  0  0  0
 20 36  1  0  0  0  0
 21 22  1  0  0  0  0
 21 37  1  0  0  0  0
 22 38  1  0  0  0  0
M  END
$$$$
