ZINC000000034294      none
 OpenBabel11202420153D

 25 27  0  0  0  0  0  0  0  0999 V2000
   31.0661   38.8066   62.4785 O   0  0  0  0  0  0  0  0  0  0  0  0
   30.8791   37.6100   62.5427 C   0  0  0  0  0  0  0  0  0  0  0  0
   31.2239   36.8175   61.5085 N   0  0  0  0  0  0  0  0  0  0  0  0
   31.7926   37.3702   60.3713 C   0  0  0  0  0  0  0  0  0  0  0  0
   32.0343   38.6358   60.2024 N   0  0  0  0  0  0  0  0  0  0  0  0
   32.5784   38.9948   59.0634 C   0  0  0  0  0  0  0  0  0  0  0  0
   32.8135   37.9692   58.2115 C   0  0  0  0  0  0  0  0  0  0  0  0
   33.4109   38.0759   56.8737 C   0  0  0  0  0  0  0  0  0  0  0  0
   33.8111   39.1939   56.3103 N   0  0  0  0  0  0  0  0  0  0  0  0
   34.3109   38.9295   55.0784 C   0  0  0  0  0  0  0  0  0  0  0  0
   34.8602   39.7329   54.0736 C   0  0  0  0  0  0  0  0  0  0  0  0
   35.2923   39.1592   52.8996 C   0  0  0  0  0  0  0  0  0  0  0  0
   35.1874   37.7895   52.7043 C   0  0  0  0  0  0  0  0  0  0  0  0
   34.6483   36.9826   53.6846 C   0  0  0  0  0  0  0  0  0  0  0  0
   34.2072   37.5423   54.8747 C   0  0  0  0  0  0  0  0  0  0  0  0
   33.6409   37.0232   56.0251 N   0  0  0  0  0  0  0  0  0  0  0  0
   33.4417   36.0898   56.1983 H   0  0  0  0  0  0  0  0  0  0  0  0
   32.2823   36.4830   58.9947 S   0  0  0  0  0  0  0  0  0  0  0  0
   30.4321   37.1800   63.4269 H   0  0  0  0  0  0  0  0  0  0  0  0
   31.0744   35.8606   61.5599 H   0  0  0  0  0  0  0  0  0  0  0  0
   32.8184   40.0206   58.8260 H   0  0  0  0  0  0  0  0  0  0  0  0
   34.9453   40.7997   54.2188 H   0  0  0  0  0  0  0  0  0  0  0  0
   35.7166   39.7800   52.1244 H   0  0  0  0  0  0  0  0  0  0  0  0
   35.5300   37.3522   51.7781 H   0  0  0  0  0  0  0  0  0  0  0  0
   34.5694   35.9173   53.5257 H   0  0  0  0  0  0  0  0  0  0  0  0
  1  2  2  0  0  0  0
  2  3  1  0  0  0  0
  2 19  1  0  0  0  0
  3  4  1  0  0  0  0
  3 20  1  0  0  0  0
  4 18  1  0  0  0  0
  4  5  2  0  0  0  0
  5  6  1  0  0  0  0
  6  7  2  0  0  0  0
  6 21  1  0  0  0  0
  7  8  1  0  0  0  0
  7 18  1  0  0  0  0
  8 16  1  0  0  0  0
  8  9  2  0  0  0  0
  9 10  1  0  0  0  0
 10 15  2  0  0  0  0
 10 11  1  0  0  0  0
 11 12  2  0  0  0  0
 11 22  1  0  0  0  0
 12 13  1  0  0  0  0
 12 23  1  0  0  0  0
 13 14  2  0  0  0  0
 13 24  1  0  0  0  0
 14 15  1  0  0  0  0
 14 25  1  0  0  0  0
 15 16  1  0  0  0  0
 16 17  1  0  0  0  0
M  END
$$$$
