ZINC000000038188      none
 OpenBabel11202420153D

 25 27  0  0  0  0  0  0  0  0999 V2000
   31.6941   36.5550   60.0069 N   0  0  0  0  0  0  0  0  0  0  0  0
   32.2501   36.0966   58.8092 C   0  0  0  0  0  0  0  0  0  0  0  0
   32.7350   37.0022   57.8789 C   0  0  0  0  0  0  0  0  0  0  0  0
   33.2896   36.5395   56.6852 C   0  0  0  0  0  0  0  0  0  0  0  0
   33.8084   37.4990   55.6882 C   0  0  0  0  0  0  0  0  0  0  0  0
   33.7969   38.8019   55.8229 N   0  0  0  0  0  0  0  0  0  0  0  0
   34.3506   39.3619   54.7180 C   0  0  0  0  0  0  0  0  0  0  0  0
   34.5800   40.6192   54.3477 N   0  0  0  0  0  0  0  0  0  0  0  0
   35.1457   40.9036   53.1942 C   0  0  0  0  0  0  0  0  0  0  0  0
   35.5279   39.9044   52.3138 C   0  0  0  0  0  0  0  0  0  0  0  0
   35.3070   38.5785   52.6491 C   0  0  0  0  0  0  0  0  0  0  0  0
   34.7137   38.3001   53.8720 C   0  0  0  0  0  0  0  0  0  0  0  0
   34.3615   37.1624   54.5082 O   0  0  0  0  0  0  0  0  0  0  0  0
   33.3478   35.1674   56.4329 C   0  0  0  0  0  0  0  0  0  0  0  0
   32.8677   34.2731   57.3674 C   0  0  0  0  0  0  0  0  0  0  0  0
   32.3173   34.7313   58.5511 C   0  0  0  0  0  0  0  0  0  0  0  0
   31.7091   33.5990   59.7180 Cl  0  0  0  0  0  0  0  0  0  0  0  0
   31.6475   37.5070   60.1870 H   0  0  0  0  0  0  0  0  0  0  0  0
   31.3546   35.9211   60.6579 H   0  0  0  0  0  0  0  0  0  0  0  0
   32.6837   38.0626   58.0772 H   0  0  0  0  0  0  0  0  0  0  0  0
   35.3153   41.9366   52.9283 H   0  0  0  0  0  0  0  0  0  0  0  0
   35.9912   40.1573   51.3716 H   0  0  0  0  0  0  0  0  0  0  0  0
   35.5914   37.7822   51.9772 H   0  0  0  0  0  0  0  0  0  0  0  0
   33.7725   34.8060   55.5081 H   0  0  0  0  0  0  0  0  0  0  0  0
   32.9172   33.2120   57.1721 H   0  0  0  0  0  0  0  0  0  0  0  0
  1  2  1  0  0  0  0
  1 18  1  0  0  0  0
  1 19  1  0  0  0  0
  2 16  2  0  0  0  0
  2  3  1  0  0  0  0
  3  4  2  0  0  0  0
  3 20  1  0  0  0  0
  4  5  1  0  0  0  0
  4 14  1  0  0  0  0
  5 13  1  0  0  0  0
  5  6  2  0  0  0  0
  6  7  1  0  0  0  0
  7 12  2  0  0  0  0
  7  8  1  0  0  0  0
  8  9  2  0  0  0  0
  9 10  1  0  0  0  0
  9 21  1  0  0  0  0
 10 11  2  0  0  0  0
 10 22  1  0  0  0  0
 11 12  1  0  0  0  0
 11 23  1  0  0  0  0
 12 13  1  0  0  0  0
 14 15  2  0  0  0  0
 14 24  1  0  0  0  0
 15 16  1  0  0  0  0
 15 25  1  0  0  0  0
 16 17  1  0  0  0  0
M  END
$$$$
