ZINC000000006711      none
 OpenBabel11202420153D

 34 35  0  0  1  0  0  0  0  0999 V2000
   34.7105   31.6345   53.4004 C   0  0  0  0  0  0  0  0  0  0  0  0
   35.0426   32.8049   54.3280 C   0  0  2  0  0  0  0  0  0  0  0  0
   36.1163   32.9914   54.3078 H   0  0  0  0  0  0  0  0  0  0  0  0
   34.6113   32.4626   55.7556 C   0  0  0  0  0  0  0  0  0  0  0  0
   34.9215   33.5557   56.6220 O   0  0  0  0  0  0  0  0  0  0  0  0
   34.3100   34.0373   53.8639 C   0  0  0  0  0  0  0  0  0  0  0  0
   33.4920   33.9754   52.7490 C   0  0  0  0  0  0  0  0  0  0  0  0
   32.8158   35.1022   52.3155 C   0  0  0  0  0  0  0  0  0  0  0  0
   32.9531   36.2960   52.9927 C   0  0  0  0  0  0  0  0  0  0  0  0
   33.7810   36.3671   54.1152 C   0  0  0  0  0  0  0  0  0  0  0  0
   33.9380   37.6438   54.8421 C   0  0  0  0  0  0  0  0  0  0  0  0
   34.3799   38.6197   54.2681 O   0  0  0  0  0  0  0  0  0  0  0  0
   33.5577   37.7342   56.2670 C   0  0  0  0  0  0  0  0  0  0  0  0
   33.0440   36.6162   56.9284 C   0  0  0  0  0  0  0  0  0  0  0  0
   32.6960   36.7064   58.2599 C   0  0  0  0  0  0  0  0  0  0  0  0
   32.8443   37.9038   58.9376 C   0  0  0  0  0  0  0  0  0  0  0  0
   33.3472   39.0169   58.2871 C   0  0  0  0  0  0  0  0  0  0  0  0
   33.7047   38.9396   56.9573 C   0  0  0  0  0  0  0  0  0  0  0  0
   34.4564   35.2243   54.5504 C   0  0  0  0  0  0  0  0  0  0  0  0
   33.6367   31.4481   53.4208 H   0  0  0  0  0  0  0  0  0  0  0  0
   35.0177   31.8783   52.3834 H   0  0  0  0  0  0  0  0  0  0  0  0
   35.2404   30.7431   53.7362 H   0  0  0  0  0  0  0  0  0  0  0  0
   33.5376   32.2761   55.7759 H   0  0  0  0  0  0  0  0  0  0  0  0
   35.1412   31.5710   56.0913 H   0  0  0  0  0  0  0  0  0  0  0  0
   35.8621   33.7778   56.6537 H   0  0  0  0  0  0  0  0  0  0  0  0
   33.3805   33.0432   52.2153 H   0  0  0  0  0  0  0  0  0  0  0  0
   32.1794   35.0468   51.4448 H   0  0  0  0  0  0  0  0  0  0  0  0
   32.4252   37.1748   52.6531 H   0  0  0  0  0  0  0  0  0  0  0  0
   32.9239   35.6823   56.3995 H   0  0  0  0  0  0  0  0  0  0  0  0
   32.3029   35.8416   58.7737 H   0  0  0  0  0  0  0  0  0  0  0  0
   32.5660   37.9700   59.9791 H   0  0  0  0  0  0  0  0  0  0  0  0
   33.4603   39.9482   58.8222 H   0  0  0  0  0  0  0  0  0  0  0  0
   34.0970   39.8091   56.4507 H   0  0  0  0  0  0  0  0  0  0  0  0
   35.0954   35.2712   55.4199 H   0  0  0  0  0  0  0  0  0  0  0  0
  1  2  1  0  0  0  0
  1 20  1  0  0  0  0
  1 21  1  0  0  0  0
  1 22  1  0  0  0  0
  2  3  1  6  0  0  0
  2  4  1  0  0  0  0
  2  6  1  0  0  0  0
  4  5  1  0  0  0  0
  4 23  1  0  0  0  0
  4 24  1  0  0  0  0
  5 25  1  0  0  0  0
  6 19  2  0  0  0  0
  6  7  1  0  0  0  0
  7  8  2  0  0  0  0
  7 26  1  0  0  0  0
  8  9  1  0  0  0  0
  8 27  1  0  0  0  0
  9 10  2  0  0  0  0
  9 28  1  0  0  0  0
 10 11  1  0  0  0  0
 10 19  1  0  0  0  0
 11 12  2  0  0  0  0
 11 13  1  0  0  0  0
 13 18  2  0  0  0  0
 13 14  1  0  0  0  0
 14 15  2  0  0  0  0
 14 29  1  0  0  0  0
 15 16  1  0  0  0  0
 15 30  1  0  0  0  0
 16 17  2  0  0  0  0
 16 31  1  0  0  0  0
 17 18  1  0  0  0  0
 17 32  1  0  0  0  0
 18 33  1  0  0  0  0
 19 34  1  0  0  0  0
M  END
$$$$
