ZINC000000033151      none
 OpenBabel11202420153D

 36 38  0  0  1  0  0  0  0  0999 V2000
   32.5044   36.5301   66.2875 C   0  0  0  0  0  0  0  0  0  0  0  0
   31.7074   35.6338   65.5110 O   0  0  0  0  0  0  0  0  0  0  0  0
   31.7259   35.8020   64.1616 C   0  0  0  0  0  0  0  0  0  0  0  0
   32.4939   36.8081   63.5979 C   0  0  0  0  0  0  0  0  0  0  0  0
   32.5153   36.9748   62.2257 C   0  0  0  0  0  0  0  0  0  0  0  0
   31.7634   36.1462   61.4138 C   0  0  0  0  0  0  0  0  0  0  0  0
   31.7864   36.3357   59.9189 C   0  0  2  0  0  0  0  0  0  0  0  0
   30.7766   36.5517   59.5697 H   0  0  0  0  0  0  0  0  0  0  0  0
   32.2613   35.1053   59.2854 N   0  0  0  0  0  0  0  0  0  0  0  0
   32.8673   35.1544   58.0760 C   0  0  0  0  0  0  0  0  0  0  0  0
   33.2174   34.1388   57.5064 O   0  0  0  0  0  0  0  0  0  0  0  0
   33.0880   36.4842   57.4718 C   0  0  0  0  0  0  0  0  0  0  0  0
   33.4150   36.6332   56.1278 C   0  0  0  0  0  0  0  0  0  0  0  0
   33.6047   37.8990   55.6111 C   0  0  0  0  0  0  0  0  0  0  0  0
   33.4767   39.0135   56.4244 C   0  0  0  0  0  0  0  0  0  0  0  0
   33.1574   38.8758   57.7621 C   0  0  0  0  0  0  0  0  0  0  0  0
   32.9637   37.6141   58.2959 C   0  0  0  0  0  0  0  0  0  0  0  0
   32.6494   37.4351   59.6022 O   0  0  0  0  0  0  0  0  0  0  0  0
   30.9950   35.1404   61.9699 C   0  0  0  0  0  0  0  0  0  0  0  0
   30.9732   34.9645   63.3441 C   0  0  0  0  0  0  0  0  0  0  0  0
   30.2181   33.9753   63.8925 O   0  0  0  0  0  0  0  0  0  0  0  0
   28.8721   34.3044   64.2415 C   0  0  0  0  0  0  0  0  0  0  0  0
   33.5498   36.4336   65.9947 H   0  0  0  0  0  0  0  0  0  0  0  0
   32.1719   37.5538   66.1156 H   0  0  0  0  0  0  0  0  0  0  0  0
   32.3993   36.2868   67.3448 H   0  0  0  0  0  0  0  0  0  0  0  0
   33.0790   37.4595   64.2302 H   0  0  0  0  0  0  0  0  0  0  0  0
   33.1176   37.7568   61.7873 H   0  0  0  0  0  0  0  0  0  0  0  0
   32.1421   34.2531   59.7330 H   0  0  0  0  0  0  0  0  0  0  0  0
   33.5153   35.7655   55.4925 H   0  0  0  0  0  0  0  0  0  0  0  0
   33.8538   38.0215   54.5674 H   0  0  0  0  0  0  0  0  0  0  0  0
   33.6274   39.9989   56.0091 H   0  0  0  0  0  0  0  0  0  0  0  0
   33.0591   39.7501   58.3884 H   0  0  0  0  0  0  0  0  0  0  0  0
   30.4121   34.4915   61.3330 H   0  0  0  0  0  0  0  0  0  0  0  0
   28.8734   35.1119   64.9736 H   0  0  0  0  0  0  0  0  0  0  0  0
   28.3331   34.6237   63.3494 H   0  0  0  0  0  0  0  0  0  0  0  0
   28.3828   33.4286   64.6675 H   0  0  0  0  0  0  0  0  0  0  0  0
  1  2  1  0  0  0  0
  1 23  1  0  0  0  0
  1 24  1  0  0  0  0
  1 25  1  0  0  0  0
  2  3  1  0  0  0  0
  3 20  2  0  0  0  0
  3  4  1  0  0  0  0
  4  5  2  0  0  0  0
  4 26  1  0  0  0  0
  5  6  1  0  0  0  0
  5 27  1  0  0  0  0
  6  7  1  0  0  0  0
  6 19  2  0  0  0  0
  7  8  1  6  0  0  0
  7 18  1  0  0  0  0
  7  9  1  0  0  0  0
  9 10  1  0  0  0  0
  9 28  1  0  0  0  0
 10 11  2  0  0  0  0
 10 12  1  0  0  0  0
 12 17  2  0  0  0  0
 12 13  1  0  0  0  0
 13 14  2  0  0  0  0
 13 29  1  0  0  0  0
 14 15  1  0  0  0  0
 14 30  1  0  0  0  0
 15 16  2  0  0  0  0
 15 31  1  0  0  0  0
 16 17  1  0  0  0  0
 16 32  1  0  0  0  0
 17 18  1  0  0  0  0
 19 20  1  0  0  0  0
 19 33  1  0  0  0  0
 20 21  1  0  0  0  0
 21 22  1  0  0  0  0
 22 34  1  0  0  0  0
 22 35  1  0  0  0  0
 22 36  1  0  0  0  0
M  END
$$$$
