ZINC000000002913      none
 OpenBabel11202420153D

 19 20  0  0  0  0  0  0  0  0999 V2000
   31.7780   36.8511   63.1000 S   0  0  0  0  0  0  0  0  0  0  0  0
   31.9760   35.6402   61.9061 C   0  0  0  0  0  0  0  0  0  0  0  0
   32.5790   34.4479   62.0809 N   0  0  0  0  0  0  0  0  0  0  0  0
   32.9762   34.1255   62.9052 H   0  0  0  0  0  0  0  0  0  0  0  0
   32.5367   33.7646   60.8753 C   0  0  0  0  0  0  0  0  0  0  0  0
   31.9117   34.5345   59.9908 C   0  0  0  0  0  0  0  0  0  0  0  0
   31.5527   35.7120   60.6287 N   0  0  0  0  0  0  0  0  0  0  0  0
   30.8429   36.8394   60.0191 C   0  0  0  0  0  0  0  0  0  0  0  0
   31.8415   37.8028   59.4310 C   0  0  0  0  0  0  0  0  0  0  0  0
   32.3652   38.7997   60.0608 N   0  0  0  0  0  0  0  0  0  0  0  0
   33.2245   39.5458   59.3963 C   0  0  0  0  0  0  0  0  0  0  0  0
   33.4377   39.1563   58.1357 C   0  0  0  0  0  0  0  0  0  0  0  0
   32.4388   37.7373   57.8303 S   0  0  0  0  0  0  0  0  0  0  0  0
   32.9410   32.7808   60.6881 H   0  0  0  0  0  0  0  0  0  0  0  0
   31.7180   34.2870   58.9575 H   0  0  0  0  0  0  0  0  0  0  0  0
   30.2503   37.3492   60.7788 H   0  0  0  0  0  0  0  0  0  0  0  0
   30.1853   36.4718   59.2314 H   0  0  0  0  0  0  0  0  0  0  0  0
   33.7162   40.4017   59.8343 H   0  0  0  0  0  0  0  0  0  0  0  0
   34.1014   39.6305   57.4278 H   0  0  0  0  0  0  0  0  0  0  0  0
  1  2  2  0  0  0  0
  2  7  1  0  0  0  0
  2  3  1  0  0  0  0
  3  4  1  0  0  0  0
  3  5  1  0  0  0  0
  5  6  2  0  0  0  0
  5 14  1  0  0  0  0
  6  7  1  0  0  0  0
  6 15  1  0  0  0  0
  7  8  1  0  0  0  0
  8  9  1  0  0  0  0
  8 16  1  0  0  0  0
  8 17  1  0  0  0  0
  9 13  1  0  0  0  0
  9 10  2  0  0  0  0
 10 11  1  0  0  0  0
 11 12  2  0  0  0  0
 11 18  1  0  0  0  0
 12 13  1  0  0  0  0
 12 19  1  0  0  0  0
M  END
$$$$
