ZINC000000050612      none
 OpenBabel11202420153D

 26 27  0  0  0  0  0  0  0  0999 V2000
   34.9173   31.4157   53.4029 C   0  0  0  0  0  0  0  0  0  0  0  0
   35.1518   32.0067   54.7945 C   0  0  0  0  0  0  0  0  0  0  0  0
   34.0462   32.8816   55.1414 O   0  0  0  0  0  0  0  0  0  0  0  0
   34.0985   33.4841   56.3397 C   0  0  0  0  0  0  0  0  0  0  0  0
   35.0372   33.2869   57.0746 O   0  0  0  0  0  0  0  0  0  0  0  0
   32.9865   34.4063   56.7688 C   0  0  0  0  0  0  0  0  0  0  0  0
   33.2937   35.7735   56.3415 N   0  0  0  0  0  0  0  0  0  0  0  0
   33.7763   36.1723   55.0860 N   0  0  0  0  0  0  0  0  0  0  0  0
   33.9292   37.4495   55.0724 N   0  0  0  0  0  0  0  0  0  0  0  0
   33.5769   37.9758   56.2623 C   0  0  0  0  0  0  0  0  0  0  0  0
   33.5545   39.2847   56.7625 C   0  0  0  0  0  0  0  0  0  0  0  0
   33.1421   39.5143   58.0423 C   0  0  0  0  0  0  0  0  0  0  0  0
   32.7317   38.4653   58.8552 C   0  0  0  0  0  0  0  0  0  0  0  0
   32.7442   37.1799   58.3912 C   0  0  0  0  0  0  0  0  0  0  0  0
   33.1658   36.9181   57.0919 C   0  0  0  0  0  0  0  0  0  0  0  0
   35.7473   30.7589   53.1425 H   0  0  0  0  0  0  0  0  0  0  0  0
   33.9886   30.8453   53.4022 H   0  0  0  0  0  0  0  0  0  0  0  0
   34.8490   32.2219   52.6726 H   0  0  0  0  0  0  0  0  0  0  0  0
   36.0806   32.5773   54.7951 H   0  0  0  0  0  0  0  0  0  0  0  0
   35.2201   31.2005   55.5248 H   0  0  0  0  0  0  0  0  0  0  0  0
   32.8894   34.3780   57.8541 H   0  0  0  0  0  0  0  0  0  0  0  0
   32.0508   34.0843   56.3117 H   0  0  0  0  0  0  0  0  0  0  0  0
   33.8671   40.1086   56.1381 H   0  0  0  0  0  0  0  0  0  0  0  0
   33.1305   40.5235   58.4266 H   0  0  0  0  0  0  0  0  0  0  0  0
   32.4037   38.6668   59.8643 H   0  0  0  0  0  0  0  0  0  0  0  0
   32.4280   36.3698   59.0315 H   0  0  0  0  0  0  0  0  0  0  0  0
  1  2  1  0  0  0  0
  1 16  1  0  0  0  0
  1 17  1  0  0  0  0
  1 18  1  0  0  0  0
  2  3  1  0  0  0  0
  2 19  1  0  0  0  0
  2 20  1  0  0  0  0
  3  4  1  0  0  0  0
  4  5  2  0  0  0  0
  4  6  1  0  0  0  0
  6  7  1  0  0  0  0
  6 21  1  0  0  0  0
  6 22  1  0  0  0  0
  7 15  1  0  0  0  0
  7  8  1  0  0  0  0
  8  9  2  0  0  0  0
  9 10  1  0  0  0  0
 10 15  2  0  0  0  0
 10 11  1  0  0  0  0
 11 12  2  0  0  0  0
 11 23  1  0  0  0  0
 12 13  1  0  0  0  0
 12 24  1  0  0  0  0
 13 14  2  0  0  0  0
 13 25  1  0  0  0  0
 14 15  1  0  0  0  0
 14 26  1  0  0  0  0
M  END
$$$$
