ZINC000000042822      none
 OpenBabel11202420153D

 41 42  0  0  0  0  0  0  0  0999 V2000
   32.5810   36.0818   69.7159 C   0  0  0  0  0  0  0  0  0  0  0  0
   32.5582   37.5236   69.2042 C   0  0  0  0  0  0  0  0  0  0  0  0
   33.4284   37.6426   68.0769 O   0  0  0  0  0  0  0  0  0  0  0  0
   32.8679   38.0421   66.9039 C   0  0  0  0  0  0  0  0  0  0  0  0
   32.9320   37.2219   65.7926 C   0  0  0  0  0  0  0  0  0  0  0  0
   32.3550   37.6351   64.5895 C   0  0  0  0  0  0  0  0  0  0  0  0
   32.4202   36.7645   63.4008 C   0  0  0  0  0  0  0  0  0  0  0  0
   32.4535   35.4752   63.5420 N   0  0  0  0  0  0  0  0  0  0  0  0
   32.5154   34.6483   62.4129 N   0  0  0  0  0  0  0  0  0  0  0  0
   31.3083   34.7014   61.2804 S   0  0  0  0  0  0  0  0  0  0  0  0
   30.1560   35.2008   61.9453 O   0  0  0  0  0  0  0  0  0  0  0  0
   31.3355   33.4510   60.6059 O   0  0  0  0  0  0  0  0  0  0  0  0
   31.7627   35.9186   60.0903 C   0  0  0  0  0  0  0  0  0  0  0  0
   31.3712   37.2332   60.2621 C   0  0  0  0  0  0  0  0  0  0  0  0
   31.7322   38.1892   59.3312 C   0  0  0  0  0  0  0  0  0  0  0  0
   32.4751   37.8285   58.2225 C   0  0  0  0  0  0  0  0  0  0  0  0
   32.8633   38.8695   57.2044 C   0  0  0  0  0  0  0  0  0  0  0  0
   32.8621   36.5130   58.0480 C   0  0  0  0  0  0  0  0  0  0  0  0
   32.5059   35.5581   58.9819 C   0  0  0  0  0  0  0  0  0  0  0  0
   31.7207   38.8774   64.5135 C   0  0  0  0  0  0  0  0  0  0  0  0
   31.6561   39.6879   65.6277 C   0  0  0  0  0  0  0  0  0  0  0  0
   32.2289   39.2771   66.8223 C   0  0  0  0  0  0  0  0  0  0  0  0
   32.1669   40.0821   67.9163 O   0  0  0  0  0  0  0  0  0  0  0  0
   31.9173   35.9910   70.5758 H   0  0  0  0  0  0  0  0  0  0  0  0
   32.2456   35.4103   68.9255 H   0  0  0  0  0  0  0  0  0  0  0  0
   33.5964   35.8171   70.0110 H   0  0  0  0  0  0  0  0  0  0  0  0
   32.8937   38.1950   69.9945 H   0  0  0  0  0  0  0  0  0  0  0  0
   31.5429   37.7882   68.9091 H   0  0  0  0  0  0  0  0  0  0  0  0
   33.4275   36.2643   65.8545 H   0  0  0  0  0  0  0  0  0  0  0  0
   32.4400   37.2003   62.4129 H   0  0  0  0  0  0  0  0  0  0  0  0
   33.2654   34.0447   62.2942 H   0  0  0  0  0  0  0  0  0  0  0  0
   30.7867   37.5142   61.1258 H   0  0  0  0  0  0  0  0  0  0  0  0
   31.4302   39.2171   59.4676 H   0  0  0  0  0  0  0  0  0  0  0  0
   32.0905   38.9347   56.4385 H   0  0  0  0  0  0  0  0  0  0  0  0
   32.9700   39.8365   57.6961 H   0  0  0  0  0  0  0  0  0  0  0  0
   33.8102   38.5904   56.7424 H   0  0  0  0  0  0  0  0  0  0  0  0
   33.4424   36.2311   57.1819 H   0  0  0  0  0  0  0  0  0  0  0  0
   32.8080   34.5302   58.8454 H   0  0  0  0  0  0  0  0  0  0  0  0
   31.2777   39.2018   63.5834 H   0  0  0  0  0  0  0  0  0  0  0  0
   31.1623   40.6466   65.5687 H   0  0  0  0  0  0  0  0  0  0  0  0
   32.5934   39.7122   68.7014 H   0  0  0  0  0  0  0  0  0  0  0  0
  1  2  1  0  0  0  0
  1 24  1  0  0  0  0
  1 25  1  0  0  0  0
  1 26  1  0  0  0  0
  2  3  1  0  0  0  0
  2 27  1  0  0  0  0
  2 28  1  0  0  0  0
  3  4  1  0  0  0  0
  4 22  2  0  0  0  0
  4  5  1  0  0  0  0
  5  6  2  0  0  0  0
  5 29  1  0  0  0  0
  6  7  1  0  0  0  0
  6 20  1  0  0  0  0
  7  8  2  0  0  0  0
  7 30  1  0  0  0  0
  8  9  1  0  0  0  0
  9 10  1  0  0  0  0
  9 31  1  0  0  0  0
 10 11  2  0  0  0  0
 10 12  2  0  0  0  0
 10 13  1  0  0  0  0
 13 19  2  0  0  0  0
 13 14  1  0  0  0  0
 14 15  2  0  0  0  0
 14 32  1  0  0  0  0
 15 16  1  0  0  0  0
 15 33  1  0  0  0  0
 16 17  1  0  0  0  0
 16 18  2  0  0  0  0
 17 34  1  0  0  0  0
 17 35  1  0  0  0  0
 17 36  1  0  0  0  0
 18 19  1  0  0  0  0
 18 37  1  0  0  0  0
 19 38  1  0  0  0  0
 20 21  2  0  0  0  0
 20 39  1  0  0  0  0
 21 22  1  0  0  0  0
 21 40  1  0  0  0  0
 22 23  1  0  0  0  0
 23 41  1  0  0  0  0
M  END
$$$$
