ZINC000000037036      none
 OpenBabel11202420153D

 26 27  0  0  0  0  0  0  0  0999 V2000
   31.9080   34.2052   59.8143 C   0  0  0  0  0  0  0  0  0  0  0  0
   31.8761   35.3324   60.8138 C   0  0  0  0  0  0  0  0  0  0  0  0
   32.4380   35.2137   61.8760 O   0  0  0  0  0  0  0  0  0  0  0  0
   31.1426   36.6080   60.4877 C   0  0  0  0  0  0  0  0  0  0  0  0
   32.3019   37.9974   60.5267 S   0  0  0  0  0  0  0  0  0  0  0  0
   32.8370   37.9966   58.8480 C   0  0  0  0  0  0  0  0  0  0  0  0
   32.8591   36.8580   58.2001 N   0  0  0  0  0  0  0  0  0  0  0  0
   33.2525   36.7850   56.9127 C   0  0  0  0  0  0  0  0  0  0  0  0
   33.2706   35.5710   56.2195 C   0  0  0  0  0  0  0  0  0  0  0  0
   33.6817   35.5421   54.9168 C   0  0  0  0  0  0  0  0  0  0  0  0
   34.0831   36.7028   54.2681 C   0  0  0  0  0  0  0  0  0  0  0  0
   34.0764   37.9054   54.9193 C   0  0  0  0  0  0  0  0  0  0  0  0
   33.6617   37.9641   56.2490 C   0  0  0  0  0  0  0  0  0  0  0  0
   33.6335   39.2275   56.9983 C   0  0  0  0  0  0  0  0  0  0  0  0
   33.9735   40.2760   56.4816 O   0  0  0  0  0  0  0  0  0  0  0  0
   33.2148   39.1819   58.2845 N   0  0  0  0  0  0  0  0  0  0  0  0
   33.1831   39.9967   58.8099 H   0  0  0  0  0  0  0  0  0  0  0  0
   31.3509   34.4939   58.9230 H   0  0  0  0  0  0  0  0  0  0  0  0
   32.9415   33.9896   59.5428 H   0  0  0  0  0  0  0  0  0  0  0  0
   31.4551   33.3167   60.2539 H   0  0  0  0  0  0  0  0  0  0  0  0
   30.7022   36.5299   59.4937 H   0  0  0  0  0  0  0  0  0  0  0  0
   30.3543   36.7718   61.2226 H   0  0  0  0  0  0  0  0  0  0  0  0
   32.9616   34.6605   56.7114 H   0  0  0  0  0  0  0  0  0  0  0  0
   33.6950   34.6029   54.3838 H   0  0  0  0  0  0  0  0  0  0  0  0
   34.4039   36.6552   53.2379 H   0  0  0  0  0  0  0  0  0  0  0  0
   34.3898   38.8031   54.4071 H   0  0  0  0  0  0  0  0  0  0  0  0
  1  2  1  0  0  0  0
  1 18  1  0  0  0  0
  1 19  1  0  0  0  0
  1 20  1  0  0  0  0
  2  3  2  0  0  0  0
  2  4  1  0  0  0  0
  4  5  1  0  0  0  0
  4 21  1  0  0  0  0
  4 22  1  0  0  0  0
  5  6  1  0  0  0  0
  6 16  1  0  0  0  0
  6  7  2  0  0  0  0
  7  8  1  0  0  0  0
  8 13  2  0  0  0  0
  8  9  1  0  0  0  0
  9 10  2  0  0  0  0
  9 23  1  0  0  0  0
 10 11  1  0  0  0  0
 10 24  1  0  0  0  0
 11 12  2  0  0  0  0
 11 25  1  0  0  0  0
 12 13  1  0  0  0  0
 12 26  1  0  0  0  0
 13 14  1  0  0  0  0
 14 15  2  0  0  0  0
 14 16  1  0  0  0  0
 16 17  1  0  0  0  0
M  END
$$$$
