ZINC000000033269      none
 OpenBabel11202420153D

 36 38  0  0  0  0  0  0  0  0999 V2000
   29.2206   40.5250   65.9412 N   0  0  0  0  0  0  0  0  0  0  0  0
   29.8374   39.6590   65.5411 C   0  0  0  0  0  0  0  0  0  0  0  0
   30.6148   38.5673   65.0367 C   0  0  0  0  0  0  0  0  0  0  0  0
   31.7485   38.0413   65.8250 C   0  0  0  0  0  0  0  0  0  0  0  0
   32.8718   38.0591   65.3607 O   0  0  0  0  0  0  0  0  0  0  0  0
   31.5371   37.5417   67.0588 N   0  0  0  0  0  0  0  0  0  0  0  0
   30.1860   37.5191   67.6359 C   0  0  0  0  0  0  0  0  0  0  0  0
   29.8686   36.0916   68.0920 C   0  0  0  0  0  0  0  0  0  0  0  0
   30.9663   35.6080   69.0425 C   0  0  0  0  0  0  0  0  0  0  0  0
   32.3091   35.5932   68.3083 C   0  0  0  0  0  0  0  0  0  0  0  0
   32.6542   37.0151   67.8547 C   0  0  0  0  0  0  0  0  0  0  0  0
   30.3043   38.0051   63.8115 C   0  0  0  0  0  0  0  0  0  0  0  0
   29.2820   38.4678   62.8357 C   0  0  0  0  0  0  0  0  0  0  0  0
   28.5493   39.4280   62.9668 O   0  0  0  0  0  0  0  0  0  0  0  0
   29.3160   37.6349   61.7812 N   0  0  0  0  0  0  0  0  0  0  0  0
   30.2681   36.6356   61.9552 C   0  0  0  0  0  0  0  0  0  0  0  0
   30.6455   35.5712   61.1461 C   0  0  0  0  0  0  0  0  0  0  0  0
   31.6389   34.7039   61.5581 C   0  0  0  0  0  0  0  0  0  0  0  0
   32.2710   34.8810   62.7782 C   0  0  0  0  0  0  0  0  0  0  0  0
   31.9121   35.9316   63.5972 C   0  0  0  0  0  0  0  0  0  0  0  0
   30.9103   36.8130   63.1915 C   0  0  0  0  0  0  0  0  0  0  0  0
   30.1424   38.1940   68.4907 H   0  0  0  0  0  0  0  0  0  0  0  0
   29.4621   37.8318   66.8835 H   0  0  0  0  0  0  0  0  0  0  0  0
   29.8233   35.4339   67.2239 H   0  0  0  0  0  0  0  0  0  0  0  0
   28.9089   36.0796   68.6085 H   0  0  0  0  0  0  0  0  0  0  0  0
   30.7301   34.6015   69.3878 H   0  0  0  0  0  0  0  0  0  0  0  0
   31.0278   36.2803   69.8983 H   0  0  0  0  0  0  0  0  0  0  0  0
   32.2407   34.9402   67.4383 H   0  0  0  0  0  0  0  0  0  0  0  0
   33.0865   35.2263   68.9785 H   0  0  0  0  0  0  0  0  0  0  0  0
   33.5586   36.9953   67.2466 H   0  0  0  0  0  0  0  0  0  0  0  0
   32.8117   37.6489   68.7273 H   0  0  0  0  0  0  0  0  0  0  0  0
   28.7464   37.7176   61.0004 H   0  0  0  0  0  0  0  0  0  0  0  0
   30.1614   35.4215   60.1923 H   0  0  0  0  0  0  0  0  0  0  0  0
   31.9255   33.8791   60.9227 H   0  0  0  0  0  0  0  0  0  0  0  0
   33.0458   34.1957   63.0886 H   0  0  0  0  0  0  0  0  0  0  0  0
   32.4046   36.0706   64.5483 H   0  0  0  0  0  0  0  0  0  0  0  0
  1  2  3  0  0  0  0
  2  3  1  0  0  0  0
  3  4  1  0  0  0  0
  3 12  2  0  0  0  0
  4  5  2  0  0  0  0
  4  6  1  0  0  0  0
  6 11  1  0  0  0  0
  6  7  1  0  0  0  0
  7  8  1  0  0  0  0
  7 22  1  0  0  0  0
  7 23  1  0  0  0  0
  8  9  1  0  0  0  0
  8 24  1  0  0  0  0
  8 25  1  0  0  0  0
  9 10  1  0  0  0  0
  9 26  1  0  0  0  0
  9 27  1  0  0  0  0
 10 11  1  0  0  0  0
 10 28  1  0  0  0  0
 10 29  1  0  0  0  0
 11 30  1  0  0  0  0
 11 31  1  0  0  0  0
 12 21  1  0  0  0  0
 12 13  1  0  0  0  0
 13 14  2  0  0  0  0
 13 15  1  0  0  0  0
 15 16  1  0  0  0  0
 15 32  1  0  0  0  0
 16 21  2  0  0  0  0
 16 17  1  0  0  0  0
 17 18  2  0  0  0  0
 17 33  1  0  0  0  0
 18 19  1  0  0  0  0
 18 34  1  0  0  0  0
 19 20  2  0  0  0  0
 19 35  1  0  0  0  0
 20 21  1  0  0  0  0
 20 36  1  0  0  0  0
M  END
$$$$
