ZINC000000011175      none
 OpenBabel11202420153D

 31 32  0  0  1  0  0  0  0  0999 V2000
   33.7141   40.2303   58.4889 C   0  0  0  0  0  0  0  0  0  0  0  0
   33.2849   38.7914   58.3597 C   0  0  0  0  0  0  0  0  0  0  0  0
   32.8194   38.1175   59.4332 C   0  0  0  0  0  0  0  0  0  0  0  0
   32.4282   36.8133   59.2971 N   0  0  0  0  0  0  0  0  0  0  0  0
   31.9170   36.0840   60.4601 C   0  0  1  0  0  0  0  0  0  0  0  0
   32.1479   35.0231   60.3630 H   0  0  0  0  0  0  0  0  0  0  0  0
   32.5080   36.6049   61.6623 O   0  0  0  0  0  0  0  0  0  0  0  0
   31.5075   36.5108   62.6991 C   0  0  1  0  0  0  0  0  0  0  0  0
   31.4394   35.4899   63.0752 H   0  0  0  0  0  0  0  0  0  0  0  0
   31.8191   37.4832   63.8384 C   0  0  0  0  0  0  0  0  0  0  0  0
   30.8155   37.3700   64.8493 O   0  0  0  0  0  0  0  0  0  0  0  0
   30.1978   36.9143   61.9753 C   0  0  0  0  0  0  0  0  0  0  0  0
   30.3926   36.2800   60.5730 C   0  0  1  0  0  0  0  0  0  0  0  0
   29.8789   35.3206   60.5112 H   0  0  0  0  0  0  0  0  0  0  0  0
   29.9254   37.1655   59.5533 O   0  0  0  0  0  0  0  0  0  0  0  0
   32.5140   36.1929   58.1063 C   0  0  0  0  0  0  0  0  0  0  0  0
   32.1661   35.0320   58.0089 O   0  0  0  0  0  0  0  0  0  0  0  0
   32.9800   36.8391   57.0214 N   0  0  0  0  0  0  0  0  0  0  0  0
   33.0353   36.3769   56.1705 H   0  0  0  0  0  0  0  0  0  0  0  0
   33.3699   38.1267   57.1128 C   0  0  0  0  0  0  0  0  0  0  0  0
   33.7916   38.7122   56.1318 O   0  0  0  0  0  0  0  0  0  0  0  0
   34.0612   40.5941   57.5218 H   0  0  0  0  0  0  0  0  0  0  0  0
   34.5224   40.3045   59.2164 H   0  0  0  0  0  0  0  0  0  0  0  0
   32.8692   40.8330   58.8219 H   0  0  0  0  0  0  0  0  0  0  0  0
   32.7519   38.6068   60.3937 H   0  0  0  0  0  0  0  0  0  0  0  0
   32.7931   37.2430   64.2648 H   0  0  0  0  0  0  0  0  0  0  0  0
   31.8328   38.5026   63.4526 H   0  0  0  0  0  0  0  0  0  0  0  0
   30.7467   36.4874   65.2384 H   0  0  0  0  0  0  0  0  0  0  0  0
   29.3290   36.4874   62.4765 H   0  0  0  0  0  0  0  0  0  0  0  0
   30.1103   37.9985   61.9050 H   0  0  0  0  0  0  0  0  0  0  0  0
   30.3205   38.0475   59.5871 H   0  0  0  0  0  0  0  0  0  0  0  0
  1  2  1  0  0  0  0
  1 22  1  0  0  0  0
  1 23  1  0  0  0  0
  1 24  1  0  0  0  0
  2 20  1  0  0  0  0
  2  3  2  0  0  0  0
  3  4  1  0  0  0  0
  3 25  1  0  0  0  0
  4  5  1  0  0  0  0
  4 16  1  0  0  0  0
  5  6  1  6  0  0  0
  5 13  1  0  0  0  0
  5  7  1  0  0  0  0
  7  8  1  0  0  0  0
  8  9  1  1  0  0  0
  8 10  1  0  0  0  0
  8 12  1  0  0  0  0
 10 11  1  0  0  0  0
 10 26  1  0  0  0  0
 10 27  1  0  0  0  0
 11 28  1  0  0  0  0
 12 13  1  0  0  0  0
 12 29  1  0  0  0  0
 12 30  1  0  0  0  0
 13 14  1  6  0  0  0
 13 15  1  0  0  0  0
 15 31  1  0  0  0  0
 16 17  2  0  0  0  0
 16 18  1  0  0  0  0
 18 19  1  0  0  0  0
 18 20  1  0  0  0  0
 20 21  2  0  0  0  0
M  END
$$$$
