ZINC000000024927      none
 OpenBabel11202420153D

 34 34  0  0  1  0  0  0  0  0999 V2000
   32.3181   33.0539   60.5919 C   0  0  0  0  0  0  0  0  0  0  0  0
   31.8209   33.3015   62.0174 C   0  0  0  0  0  0  0  0  0  0  0  0
   30.8796   34.4071   62.0165 O   0  0  0  0  0  0  0  0  0  0  0  0
   30.8151   35.1533   63.1305 C   0  0  0  0  0  0  0  0  0  0  0  0
   31.0518   34.6555   64.2057 O   0  0  0  0  0  0  0  0  0  0  0  0
   30.4473   36.6120   63.0401 C   0  0  2  0  0  0  0  0  0  0  0  0
   29.9377   36.9203   63.9529 H   0  0  0  0  0  0  0  0  0  0  0  0
   29.5281   36.8358   61.8387 C   0  0  0  0  0  0  0  0  0  0  0  0
   30.2605   36.6439   60.5932 N   0  0  0  0  0  0  0  0  0  0  0  0
   31.5886   36.6826   60.4948 C   0  0  0  0  0  0  0  0  0  0  0  0
   32.0852   36.5505   59.3962 O   0  0  0  0  0  0  0  0  0  0  0  0
   32.5036   36.8789   61.6694 C   0  0  0  0  0  0  0  0  0  0  0  0
   31.7164   37.4517   62.8505 C   0  0  2  0  0  0  0  0  0  0  0  0
   31.4441   38.4864   62.6427 H   0  0  0  0  0  0  0  0  0  0  0  0
   32.5580   37.3895   64.0991 C   0  0  0  0  0  0  0  0  0  0  0  0
   33.3939   36.5257   64.2219 O   0  0  0  0  0  0  0  0  0  0  0  0
   32.3790   38.2938   65.0749 O   0  0  0  0  0  0  0  0  0  0  0  0
   33.2249   38.1731   66.2486 C   0  0  0  0  0  0  0  0  0  0  0  0
   32.8780   39.2823   67.2436 C   0  0  0  0  0  0  0  0  0  0  0  0
   31.4722   32.8104   59.9491 H   0  0  0  0  0  0  0  0  0  0  0  0
   32.8119   33.9511   60.2182 H   0  0  0  0  0  0  0  0  0  0  0  0
   33.0247   32.2239   60.5925 H   0  0  0  0  0  0  0  0  0  0  0  0
   32.6669   33.5451   62.6601 H   0  0  0  0  0  0  0  0  0  0  0  0
   31.3272   32.4043   62.3910 H   0  0  0  0  0  0  0  0  0  0  0  0
   28.6997   36.1287   61.8821 H   0  0  0  0  0  0  0  0  0  0  0  0
   29.1331   37.8512   61.8716 H   0  0  0  0  0  0  0  0  0  0  0  0
   29.7489   36.4789   59.7858 H   0  0  0  0  0  0  0  0  0  0  0  0
   33.3006   37.5703   61.3960 H   0  0  0  0  0  0  0  0  0  0  0  0
   32.9376   35.9204   61.9543 H   0  0  0  0  0  0  0  0  0  0  0  0
   33.0619   37.2020   66.7158 H   0  0  0  0  0  0  0  0  0  0  0  0
   34.2705   38.2634   65.9539 H   0  0  0  0  0  0  0  0  0  0  0  0
   33.5130   39.1919   68.1249 H   0  0  0  0  0  0  0  0  0  0  0  0
   33.0411   40.2536   66.7764 H   0  0  0  0  0  0  0  0  0  0  0  0
   31.8325   39.1921   67.5384 H   0  0  0  0  0  0  0  0  0  0  0  0
  1  2  1  0  0  0  0
  1 20  1  0  0  0  0
  1 21  1  0  0  0  0
  1 22  1  0  0  0  0
  2  3  1  0  0  0  0
  2 23  1  0  0  0  0
  2 24  1  0  0  0  0
  3  4  1  0  0  0  0
  4  5  2  0  0  0  0
  4  6  1  0  0  0  0
  6  7  1  1  0  0  0
  6 13  1  0  0  0  0
  6  8  1  0  0  0  0
  8  9  1  0  0  0  0
  8 25  1  0  0  0  0
  8 26  1  0  0  0  0
  9 10  1  0  0  0  0
  9 27  1  0  0  0  0
 10 11  2  0  0  0  0
 10 12  1  0  0  0  0
 12 13  1  0  0  0  0
 12 28  1  0  0  0  0
 12 29  1  0  0  0  0
 13 14  1  6  0  0  0
 13 15  1  0  0  0  0
 15 16  2  0  0  0  0
 15 17  1  0  0  0  0
 17 18  1  0  0  0  0
 18 19  1  0  0  0  0
 18 30  1  0  0  0  0
 18 31  1  0  0  0  0
 19 32  1  0  0  0  0
 19 33  1  0  0  0  0
 19 34  1  0  0  0  0
M  END
$$$$
