ZINC000000037937      none
 OpenBabel11202420153D

 33 35  0  0  0  0  0  0  0  0999 V2000
   34.7269   40.9835   59.2489 C   0  0  0  0  0  0  0  0  0  0  0  0
   33.4846   40.6183   58.6445 O   0  0  0  0  0  0  0  0  0  0  0  0
   33.3486   39.3254   58.2457 C   0  0  0  0  0  0  0  0  0  0  0  0
   33.7242   38.9502   56.9661 C   0  0  0  0  0  0  0  0  0  0  0  0
   33.5797   37.6365   56.5601 C   0  0  0  0  0  0  0  0  0  0  0  0
   33.0658   36.6925   57.4300 C   0  0  0  0  0  0  0  0  0  0  0  0
   32.6939   37.0573   58.7100 C   0  0  0  0  0  0  0  0  0  0  0  0
   32.8360   38.3737   59.1247 C   0  0  0  0  0  0  0  0  0  0  0  0
   32.4600   38.7459   60.4211 N   0  0  0  0  0  0  0  0  0  0  0  0
   31.4667   38.0867   61.0502 C   0  0  0  0  0  0  0  0  0  0  0  0
   30.8968   37.1684   60.4914 O   0  0  0  0  0  0  0  0  0  0  0  0
   31.0723   38.4772   62.4106 C   0  0  0  0  0  0  0  0  0  0  0  0
   29.8318   38.8932   62.7757 C   0  0  0  0  0  0  0  0  0  0  0  0
   29.9037   39.1716   64.2096 C   0  0  0  0  0  0  0  0  0  0  0  0
   28.9885   39.6328   65.1592 C   0  0  0  0  0  0  0  0  0  0  0  0
   29.3820   39.7911   66.4579 C   0  0  0  0  0  0  0  0  0  0  0  0
   30.6842   39.4967   66.8392 C   0  0  0  0  0  0  0  0  0  0  0  0
   31.6022   39.0411   65.9179 C   0  0  0  0  0  0  0  0  0  0  0  0
   31.2264   38.8772   64.5894 C   0  0  0  0  0  0  0  0  0  0  0  0
   31.8843   38.4652   63.4884 O   0  0  0  0  0  0  0  0  0  0  0  0
   34.7029   42.0392   59.5194 H   0  0  0  0  0  0  0  0  0  0  0  0
   34.8857   40.3827   60.1444 H   0  0  0  0  0  0  0  0  0  0  0  0
   35.5396   40.8073   58.5442 H   0  0  0  0  0  0  0  0  0  0  0  0
   34.1259   39.6849   56.2841 H   0  0  0  0  0  0  0  0  0  0  0  0
   33.8692   37.3468   55.5608 H   0  0  0  0  0  0  0  0  0  0  0  0
   32.9550   35.6675   57.1085 H   0  0  0  0  0  0  0  0  0  0  0  0
   32.2924   36.3180   59.3873 H   0  0  0  0  0  0  0  0  0  0  0  0
   32.9144   39.4780   60.8666 H   0  0  0  0  0  0  0  0  0  0  0  0
   28.9700   39.0063   62.1347 H   0  0  0  0  0  0  0  0  0  0  0  0
   27.9744   39.8629   64.8679 H   0  0  0  0  0  0  0  0  0  0  0  0
   28.6756   40.1478   67.1927 H   0  0  0  0  0  0  0  0  0  0  0  0
   30.9811   39.6267   67.8694 H   0  0  0  0  0  0  0  0  0  0  0  0
   32.6124   38.8162   66.2263 H   0  0  0  0  0  0  0  0  0  0  0  0
  1  2  1  0  0  0  0
  1 21  1  0  0  0  0
  1 22  1  0  0  0  0
  1 23  1  0  0  0  0
  2  3  1  0  0  0  0
  3  8  2  0  0  0  0
  3  4  1  0  0  0  0
  4  5  2  0  0  0  0
  4 24  1  0  0  0  0
  5  6  1  0  0  0  0
  5 25  1  0  0  0  0
  6  7  2  0  0  0  0
  6 26  1  0  0  0  0
  7  8  1  0  0  0  0
  7 27  1  0  0  0  0
  8  9  1  0  0  0  0
  9 10  1  0  0  0  0
  9 28  1  0  0  0  0
 10 11  2  0  0  0  0
 10 12  1  0  0  0  0
 12 20  1  0  0  0  0
 12 13  2  0  0  0  0
 13 14  1  0  0  0  0
 13 29  1  0  0  0  0
 14 19  2  0  0  0  0
 14 15  1  0  0  0  0
 15 16  2  0  0  0  0
 15 30  1  0  0  0  0
 16 17  1  0  0  0  0
 16 31  1  0  0  0  0
 17 18  2  0  0  0  0
 17 32  1  0  0  0  0
 18 19  1  0  0  0  0
 18 33  1  0  0  0  0
 19 20  1  0  0  0  0
M  END
$$$$
