ZINC000000027938      none
 OpenBabel11202420153D

 27 28  0  0  0  0  0  0  0  0999 V2000
   33.4553   35.7613   52.0087 C   0  0  0  0  0  0  0  0  0  0  0  0
   34.0563   36.9349   52.7850 C   0  0  0  0  0  0  0  0  0  0  0  0
   33.5538   36.9220   54.1473 O   0  0  0  0  0  0  0  0  0  0  0  0
   33.9893   37.8972   54.9693 C   0  0  0  0  0  0  0  0  0  0  0  0
   34.7678   38.7354   54.5588 O   0  0  0  0  0  0  0  0  0  0  0  0
   33.5221   37.9471   56.3648 C   0  0  0  0  0  0  0  0  0  0  0  0
   33.4209   39.1828   57.0451 C   0  0  0  0  0  0  0  0  0  0  0  0
   33.0032   39.2122   58.2881 N   0  0  0  0  0  0  0  0  0  0  0  0
   32.6671   38.0862   58.9335 C   0  0  0  0  0  0  0  0  0  0  0  0
   32.2056   37.8646   60.2258 C   0  0  0  0  0  0  0  0  0  0  0  0
   32.0044   36.4905   60.3770 C   0  0  0  0  0  0  0  0  0  0  0  0
   31.5985   35.9349   61.3844 O   0  0  0  0  0  0  0  0  0  0  0  0
   32.3351   35.8842   59.2210 N   0  0  0  0  0  0  0  0  0  0  0  0
   32.2909   34.9308   59.0476 H   0  0  0  0  0  0  0  0  0  0  0  0
   32.7535   36.8637   58.3114 N   0  0  0  0  0  0  0  0  0  0  0  0
   33.1817   36.7825   57.0361 C   0  0  0  0  0  0  0  0  0  0  0  0
   33.2738   35.4468   56.3443 C   0  0  0  0  0  0  0  0  0  0  0  0
   33.8325   35.7710   50.9861 H   0  0  0  0  0  0  0  0  0  0  0  0
   33.7361   34.8250   52.4907 H   0  0  0  0  0  0  0  0  0  0  0  0
   32.3692   35.8521   51.9962 H   0  0  0  0  0  0  0  0  0  0  0  0
   33.7754   37.8713   52.3030 H   0  0  0  0  0  0  0  0  0  0  0  0
   35.1424   36.8441   52.7976 H   0  0  0  0  0  0  0  0  0  0  0  0
   33.6876   40.1006   56.5422 H   0  0  0  0  0  0  0  0  0  0  0  0
   32.0297   38.6200   60.9772 H   0  0  0  0  0  0  0  0  0  0  0  0
   32.3751   35.2829   55.7496 H   0  0  0  0  0  0  0  0  0  0  0  0
   34.1477   35.4343   55.6930 H   0  0  0  0  0  0  0  0  0  0  0  0
   33.3650   34.6569   57.0899 H   0  0  0  0  0  0  0  0  0  0  0  0
  1  2  1  0  0  0  0
  1 18  1  0  0  0  0
  1 19  1  0  0  0  0
  1 20  1  0  0  0  0
  2  3  1  0  0  0  0
  2 21  1  0  0  0  0
  2 22  1  0  0  0  0
  3  4  1  0  0  0  0
  4  5  2  0  0  0  0
  4  6  1  0  0  0  0
  6 16  2  0  0  0  0
  6  7  1  0  0  0  0
  7  8  2  0  0  0  0
  7 23  1  0  0  0  0
  8  9  1  0  0  0  0
  9 15  1  0  0  0  0
  9 10  2  0  0  0  0
 10 11  1  0  0  0  0
 10 24  1  0  0  0  0
 11 12  2  0  0  0  0
 11 13  1  0  0  0  0
 13 14  1  0  0  0  0
 13 15  1  0  0  0  0
 15 16  1  0  0  0  0
 16 17  1  0  0  0  0
 17 25  1  0  0  0  0
 17 26  1  0  0  0  0
 17 27  1  0  0  0  0
M  END
$$$$
