ZINC000000001630      none
 OpenBabel11202420153D

 38 39  0  0  0  0  0  0  0  0999 V2000
   32.2373   33.3929   61.7578 C   0  0  0  0  0  0  0  0  0  0  0  0
   31.2893   34.0607   60.9225 O   0  0  0  0  0  0  0  0  0  0  0  0
   31.7787   34.9717   60.0387 C   0  0  0  0  0  0  0  0  0  0  0  0
   32.1477   34.5600   58.7529 C   0  0  0  0  0  0  0  0  0  0  0  0
   32.0132   33.2530   58.4002 O   0  0  0  0  0  0  0  0  0  0  0  0
   30.6971   32.6990   58.4529 C   0  0  0  0  0  0  0  0  0  0  0  0
   32.6459   35.4653   57.8396 C   0  0  0  0  0  0  0  0  0  0  0  0
   33.0001   35.0528   56.5930 O   0  0  0  0  0  0  0  0  0  0  0  0
   33.4376   33.7900   56.4705 C   0  0  0  0  0  0  0  0  0  0  0  0
   32.7066   32.8228   55.5754 C   0  0  0  0  0  0  0  0  0  0  0  0
   34.4207   33.4274   57.0799 O   0  0  0  0  0  0  0  0  0  0  0  0
   32.7860   36.8192   58.2030 C   0  0  0  0  0  0  0  0  0  0  0  0
   33.2907   37.7651   57.2951 C   0  0  0  0  0  0  0  0  0  0  0  0
   33.4151   39.0669   57.6766 C   0  0  0  0  0  0  0  0  0  0  0  0
   34.0399   40.2324   56.5518 Cl  0  0  0  0  0  0  0  0  0  0  0  0
   33.0473   39.4767   58.9580 C   0  0  0  0  0  0  0  0  0  0  0  0
   32.5546   38.5874   59.8630 C   0  0  0  0  0  0  0  0  0  0  0  0
   32.4128   37.2361   59.5052 C   0  0  0  0  0  0  0  0  0  0  0  0
   31.9007   36.2922   60.4172 C   0  0  0  0  0  0  0  0  0  0  0  0
   31.5329   36.6808   61.6675 O   0  0  0  0  0  0  0  0  0  0  0  0
   30.2594   37.0699   61.8347 C   0  0  0  0  0  0  0  0  0  0  0  0
   29.7793   37.5140   63.1924 C   0  0  0  0  0  0  0  0  0  0  0  0
   29.4954   37.0639   60.8938 O   0  0  0  0  0  0  0  0  0  0  0  0
   31.7160   32.6954   62.4134 H   0  0  0  0  0  0  0  0  0  0  0  0
   32.7717   34.1275   62.3601 H   0  0  0  0  0  0  0  0  0  0  0  0
   32.9471   32.8464   61.1368 H   0  0  0  0  0  0  0  0  0  0  0  0
   30.3140   32.7686   59.4709 H   0  0  0  0  0  0  0  0  0  0  0  0
   30.0426   33.2529   57.7797 H   0  0  0  0  0  0  0  0  0  0  0  0
   30.7307   31.6530   58.1480 H   0  0  0  0  0  0  0  0  0  0  0  0
   33.1241   32.8719   54.5696 H   0  0  0  0  0  0  0  0  0  0  0  0
   32.8178   31.8112   55.9659 H   0  0  0  0  0  0  0  0  0  0  0  0
   31.6493   33.0857   55.5431 H   0  0  0  0  0  0  0  0  0  0  0  0
   33.5794   37.4615   56.2996 H   0  0  0  0  0  0  0  0  0  0  0  0
   33.1551   40.5147   59.2363 H   0  0  0  0  0  0  0  0  0  0  0  0
   32.2745   38.9188   60.8520 H   0  0  0  0  0  0  0  0  0  0  0  0
   29.9299   38.5884   63.2975 H   0  0  0  0  0  0  0  0  0  0  0  0
   28.7189   37.2839   63.2961 H   0  0  0  0  0  0  0  0  0  0  0  0
   30.3419   36.9909   63.9657 H   0  0  0  0  0  0  0  0  0  0  0  0
  1  2  1  0  0  0  0
  1 24  1  0  0  0  0
  1 25  1  0  0  0  0
  1 26  1  0  0  0  0
  2  3  1  0  0  0  0
  3 19  2  0  0  0  0
  3  4  1  0  0  0  0
  4  5  1  0  0  0  0
  4  7  2  0  0  0  0
  5  6  1  0  0  0  0
  6 27  1  0  0  0  0
  6 28  1  0  0  0  0
  6 29  1  0  0  0  0
  7  8  1  0  0  0  0
  7 12  1  0  0  0  0
  8  9  1  0  0  0  0
  9 10  1  0  0  0  0
  9 11  2  0  0  0  0
 10 30  1  0  0  0  0
 10 31  1  0  0  0  0
 10 32  1  0  0  0  0
 12 18  2  0  0  0  0
 12 13  1  0  0  0  0
 13 14  2  0  0  0  0
 13 33  1  0  0  0  0
 14 15  1  0  0  0  0
 14 16  1  0  0  0  0
 16 17  2  0  0  0  0
 16 34  1  0  0  0  0
 17 18  1  0  0  0  0
 17 35  1  0  0  0  0
 18 19  1  0  0  0  0
 19 20  1  0  0  0  0
 20 21  1  0  0  0  0
 21 22  1  0  0  0  0
 21 23  2  0  0  0  0
 22 36  1  0  0  0  0
 22 37  1  0  0  0  0
 22 38  1  0  0  0  0
M  END
$$$$
