ZINC000000057049      none
 OpenBabel11202420153D

 18 18  0  0  0  0  0  0  0  0999 V2000
   31.5695   34.1624   59.8820 C   0  0  0  0  0  0  0  0  0  0  0  0
   31.5339   35.4816   60.4303 O   0  0  0  0  0  0  0  0  0  0  0  0
   32.0278   36.4810   59.6606 C   0  0  0  0  0  0  0  0  0  0  0  0
   32.0109   37.7200   60.1241 N   0  0  0  0  0  0  0  0  0  0  0  0
   32.4897   38.7229   59.4032 C   0  0  0  0  0  0  0  0  0  0  0  0
   33.0027   38.4656   58.1450 C   0  0  0  0  0  0  0  0  0  0  0  0
   33.6899   39.8655   57.0755 Br  0  0  0  0  0  0  0  0  0  0  0  0
   33.0010   37.1498   57.6832 C   0  0  0  0  0  0  0  0  0  0  0  0
   33.4941   36.8512   56.4566 O   0  0  0  0  0  0  0  0  0  0  0  0
   33.4557   35.4793   56.0584 C   0  0  0  0  0  0  0  0  0  0  0  0
   32.5097   36.1938   58.4626 N   0  0  0  0  0  0  0  0  0  0  0  0
   30.9889   34.1363   58.9599 H   0  0  0  0  0  0  0  0  0  0  0  0
   31.1450   33.4595   60.5988 H   0  0  0  0  0  0  0  0  0  0  0  0
   32.6021   33.8852   59.6691 H   0  0  0  0  0  0  0  0  0  0  0  0
   32.4757   39.7305   59.7918 H   0  0  0  0  0  0  0  0  0  0  0  0
   32.4225   35.1318   56.0512 H   0  0  0  0  0  0  0  0  0  0  0  0
   33.8797   35.3789   55.0593 H   0  0  0  0  0  0  0  0  0  0  0  0
   34.0355   34.8805   56.7608 H   0  0  0  0  0  0  0  0  0  0  0  0
  1  2  1  0  0  0  0
  1 12  1  0  0  0  0
  1 13  1  0  0  0  0
  1 14  1  0  0  0  0
  2  3  1  0  0  0  0
  3 11  2  0  0  0  0
  3  4  1  0  0  0  0
  4  5  2  0  0  0  0
  5  6  1  0  0  0  0
  5 15  1  0  0  0  0
  6  7  1  0  0  0  0
  6  8  2  0  0  0  0
  8  9  1  0  0  0  0
  8 11  1  0  0  0  0
  9 10  1  0  0  0  0
 10 16  1  0  0  0  0
 10 17  1  0  0  0  0
 10 18  1  0  0  0  0
M  END
$$$$
