ZINC000000002137      none
 OpenBabel11202420153D

 32 32  0  0  1  0  0  0  0  0999 V2000
   32.2056   35.9174   59.2418 C   0  0  0  0  0  0  0  0  0  0  0  0
   31.3912   35.9456   60.5368 C   0  0  2  0  0  0  0  0  0  0  0  0
   30.4280   34.8903   60.5169 O   0  0  0  0  0  0  0  0  0  0  0  0
   30.6720   37.2906   60.6578 C   0  0  0  0  0  0  0  0  0  0  0  0
   29.8577   37.3188   61.9527 C   0  0  0  0  0  0  0  0  0  0  0  0
   30.7941   37.1319   63.1482 C   0  0  1  0  0  0  0  0  0  0  0  0
   29.9799   37.1603   64.4432 C   0  0  0  0  0  0  0  0  0  0  0  0
   29.2607   38.5052   64.5643 C   0  0  0  0  0  0  0  0  0  0  0  0
   28.9483   36.0304   64.4218 C   0  0  0  0  0  0  0  0  0  0  0  0
   30.8544   36.9856   65.5598 O   0  0  0  0  0  0  0  0  0  0  0  0
   31.5135   35.7870   63.0273 C   0  0  0  0  0  0  0  0  0  0  0  0
   32.3277   35.7588   61.7322 C   0  0  0  0  0  0  0  0  0  0  0  0
   31.5385   36.0504   58.3901 H   0  0  0  0  0  0  0  0  0  0  0  0
   32.9404   36.7223   59.2571 H   0  0  0  0  0  0  0  0  0  0  0  0
   32.7180   34.9592   59.1557 H   0  0  0  0  0  0  0  0  0  0  0  0
   30.8138   34.0069   60.4416 H   0  0  0  0  0  0  0  0  0  0  0  0
   31.4068   38.0954   60.6730 H   0  0  0  0  0  0  0  0  0  0  0  0
   30.0048   37.4236   59.8061 H   0  0  0  0  0  0  0  0  0  0  0  0
   29.1229   36.5138   61.9376 H   0  0  0  0  0  0  0  0  0  0  0  0
   29.3452   38.2770   62.0388 H   0  0  0  0  0  0  0  0  0  0  0  0
   31.5289   37.9369   63.1634 H   0  0  0  0  0  0  0  0  0  0  0  0
   28.5935   38.6385   63.7125 H   0  0  0  0  0  0  0  0  0  0  0  0
   28.6805   38.5253   65.4868 H   0  0  0  0  0  0  0  0  0  0  0  0
   29.9955   39.3102   64.5795 H   0  0  0  0  0  0  0  0  0  0  0  0
   29.4607   35.0722   64.3357 H   0  0  0  0  0  0  0  0  0  0  0  0
   28.3682   36.0506   65.3444 H   0  0  0  0  0  0  0  0  0  0  0  0
   28.2812   36.1636   63.5702 H   0  0  0  0  0  0  0  0  0  0  0  0
   31.5358   37.6677   65.6362 H   0  0  0  0  0  0  0  0  0  0  0  0
   30.7786   34.9821   63.0121 H   0  0  0  0  0  0  0  0  0  0  0  0
   32.1806   35.6539   63.8790 H   0  0  0  0  0  0  0  0  0  0  0  0
   32.8402   34.8006   61.6461 H   0  0  0  0  0  0  0  0  0  0  0  0
   33.0625   36.5637   61.7475 H   0  0  0  0  0  0  0  0  0  0  0  0
  1  2  1  0  0  0  0
  1 13  1  0  0  0  0
  1 14  1  0  0  0  0
  1 15  1  0  0  0  0
  2 12  1  0  0  0  0
  2  3  1  6  0  0  0
  2  4  1  0  0  0  0
  3 16  1  0  0  0  0
  4  5  1  0  0  0  0
  4 17  1  0  0  0  0
  4 18  1  0  0  0  0
  5  6  1  0  0  0  0
  5 19  1  0  0  0  0
  5 20  1  0  0  0  0
  6  7  1  0  0  0  0
  6 11  1  0  0  0  0
  6 21  1  1  0  0  0
  7  8  1  0  0  0  0
  7  9  1  0  0  0  0
  7 10  1  0  0  0  0
  8 22  1  0  0  0  0
  8 23  1  0  0  0  0
  8 24  1  0  0  0  0
  9 25  1  0  0  0  0
  9 26  1  0  0  0  0
  9 27  1  0  0  0  0
 10 28  1  0  0  0  0
 11 12  1  0  0  0  0
 11 29  1  0  0  0  0
 11 30  1  0  0  0  0
 12 31  1  0  0  0  0
 12 32  1  0  0  0  0
M  END
$$$$
