ZINC000000027902      none
 OpenBabel11202420153D

 39 40  0  0  1  0  0  0  0  0999 V2000
   30.9277   34.6814   68.4633 C   0  0  0  0  0  0  0  0  0  0  0  0
   31.2155   35.7699   67.4615 C   0  0  0  0  0  0  0  0  0  0  0  0
   31.4225   37.0678   67.8922 C   0  0  0  0  0  0  0  0  0  0  0  0
   31.6865   38.0697   66.9765 C   0  0  0  0  0  0  0  0  0  0  0  0
   31.7392   37.7779   65.6274 C   0  0  0  0  0  0  0  0  0  0  0  0
   31.5372   36.4746   65.1920 C   0  0  0  0  0  0  0  0  0  0  0  0
   31.5955   36.1748   63.8282 N   0  0  0  0  0  0  0  0  0  0  0  0
   30.5204   35.6511   63.2068 C   0  0  0  0  0  0  0  0  0  0  0  0
   29.0831   35.3530   64.0880 S   0  0  0  0  0  0  0  0  0  0  0  0
   30.5767   35.3617   61.8917 N   0  0  0  0  0  0  0  0  0  0  0  0
   30.8092   36.2597   61.0688 N   0  0  0  0  0  0  0  0  0  0  0  0
   30.8706   35.9452   59.6392 C   0  0  2  0  0  0  0  0  0  0  0  0
   31.3588   34.5071   59.4537 C   0  0  0  0  0  0  0  0  0  0  0  0
   31.8248   36.8915   58.9572 C   0  0  0  0  0  0  0  0  0  0  0  0
   32.5270   36.4780   57.8397 C   0  0  0  0  0  0  0  0  0  0  0  0
   33.3993   37.3449   57.2076 C   0  0  0  0  0  0  0  0  0  0  0  0
   33.5804   38.6236   57.6972 C   0  0  0  0  0  0  0  0  0  0  0  0
   32.8811   39.0403   58.8225 C   0  0  0  0  0  0  0  0  0  0  0  0
   33.0622   40.3326   59.3205 N   0  0  0  0  0  0  0  0  0  0  0  0
   32.0012   38.1686   59.4519 C   0  0  0  0  0  0  0  0  0  0  0  0
   31.2720   35.4703   66.1148 C   0  0  0  0  0  0  0  0  0  0  0  0
   29.8515   34.6075   68.6202 H   0  0  0  0  0  0  0  0  0  0  0  0
   31.3060   33.7312   68.0861 H   0  0  0  0  0  0  0  0  0  0  0  0
   31.4172   34.9183   69.4079 H   0  0  0  0  0  0  0  0  0  0  0  0
   31.3780   37.2994   68.9461 H   0  0  0  0  0  0  0  0  0  0  0  0
   31.8471   39.0821   67.3161 H   0  0  0  0  0  0  0  0  0  0  0  0
   31.9414   38.5617   64.9123 H   0  0  0  0  0  0  0  0  0  0  0  0
   32.4098   36.3436   63.3289 H   0  0  0  0  0  0  0  0  0  0  0  0
   29.8783   36.0514   59.2009 H   0  0  0  0  0  0  0  0  0  0  0  0
   31.4046   34.2732   58.3902 H   0  0  0  0  0  0  0  0  0  0  0  0
   32.3511   34.4010   59.8921 H   0  0  0  0  0  0  0  0  0  0  0  0
   30.6687   33.8227   59.9471 H   0  0  0  0  0  0  0  0  0  0  0  0
   32.3908   35.4770   57.4577 H   0  0  0  0  0  0  0  0  0  0  0  0
   33.9428   37.0202   56.3325 H   0  0  0  0  0  0  0  0  0  0  0  0
   34.2649   39.2989   57.2053 H   0  0  0  0  0  0  0  0  0  0  0  0
   32.5734   40.6223   60.1067 H   0  0  0  0  0  0  0  0  0  0  0  0
   33.6768   40.9403   58.8802 H   0  0  0  0  0  0  0  0  0  0  0  0
   31.4555   38.4896   60.3270 H   0  0  0  0  0  0  0  0  0  0  0  0
   31.1108   34.4565   65.7793 H   0  0  0  0  0  0  0  0  0  0  0  0
  1  2  1  0  0  0  0
  1 22  1  0  0  0  0
  1 23  1  0  0  0  0
  1 24  1  0  0  0  0
  2 21  2  0  0  0  0
  2  3  1  0  0  0  0
  3  4  2  0  0  0  0
  3 25  1  0  0  0  0
  4  5  1  0  0  0  0
  4 26  1  0  0  0  0
  5  6  2  0  0  0  0
  5 27  1  0  0  0  0
  6  7  1  0  0  0  0
  6 21  1  0  0  0  0
  7  8  1  0  0  0  0
  7 28  1  0  0  0  0
  8  9  2  0  0  0  0
  8 10  1  0  0  0  0
 10 11  2  0  0  0  0
 11 12  1  0  0  0  0
 12 13  1  0  0  0  0
 12 14  1  0  0  0  0
 12 29  1  6  0  0  0
 13 30  1  0  0  0  0
 13 31  1  0  0  0  0
 13 32  1  0  0  0  0
 14 20  2  0  0  0  0
 14 15  1  0  0  0  0
 15 16  2  0  0  0  0
 15 33  1  0  0  0  0
 16 17  1  0  0  0  0
 16 34  1  0  0  0  0
 17 18  2  0  0  0  0
 17 35  1  0  0  0  0
 18 19  1  0  0  0  0
 18 20  1  0  0  0  0
 19 36  1  0  0  0  0
 19 37  1  0  0  0  0
 20 38  1  0  0  0  0
 21 39  1  0  0  0  0
M  END
$$$$
