ZINC000000029791      none
 OpenBabel11202420163D

 37 37  0  0  0  0  0  0  0  0999 V2000
   35.4237   39.8389   52.1544 C   0  0  0  0  0  0  0  0  0  0  0  0
   35.0515   38.6793   52.9451 O   0  0  0  0  0  0  0  0  0  0  0  0
   34.6538   38.9052   54.2122 C   0  0  0  0  0  0  0  0  0  0  0  0
   34.6189   40.0397   54.6448 O   0  0  0  0  0  0  0  0  0  0  0  0
   34.2600   37.7728   55.0759 C   0  0  0  0  0  0  0  0  0  0  0  0
   33.8480   38.0060   56.3896 C   0  0  0  0  0  0  0  0  0  0  0  0
   33.4792   36.9434   57.2014 C   0  0  0  0  0  0  0  0  0  0  0  0
   33.0672   37.1809   58.5180 N   0  0  0  0  0  0  0  0  0  0  0  0
   32.1779   36.3556   59.1051 C   0  0  0  0  0  0  0  0  0  0  0  0
   31.7347   35.4071   58.4926 O   0  0  0  0  0  0  0  0  0  0  0  0
   31.7390   36.6076   60.5246 C   0  0  0  0  0  0  0  0  0  0  0  0
   30.5043   37.5110   60.5238 C   0  0  0  0  0  0  0  0  0  0  0  0
   31.3965   35.2764   61.1965 C   0  0  0  0  0  0  0  0  0  0  0  0
   33.5229   35.6458   56.7135 C   0  0  0  0  0  0  0  0  0  0  0  0
   33.9279   35.4057   55.3988 C   0  0  0  0  0  0  0  0  0  0  0  0
   33.9684   34.0235   54.8781 C   0  0  0  0  0  0  0  0  0  0  0  0
   32.9542   33.3557   54.8484 O   0  0  0  0  0  0  0  0  0  0  0  0
   35.1301   33.5039   54.4364 O   0  0  0  0  0  0  0  0  0  0  0  0
   35.0954   32.1403   53.9387 C   0  0  0  0  0  0  0  0  0  0  0  0
   34.2998   36.4707   54.5805 C   0  0  0  0  0  0  0  0  0  0  0  0
   35.7232   39.5175   51.1569 H   0  0  0  0  0  0  0  0  0  0  0  0
   34.5723   40.5150   52.0780 H   0  0  0  0  0  0  0  0  0  0  0  0
   36.2551   40.3545   52.6350 H   0  0  0  0  0  0  0  0  0  0  0  0
   33.8170   39.0146   56.7742 H   0  0  0  0  0  0  0  0  0  0  0  0
   33.4216   37.9394   59.0077 H   0  0  0  0  0  0  0  0  0  0  0  0
   32.5452   37.0947   61.0731 H   0  0  0  0  0  0  0  0  0  0  0  0
   29.6980   37.0241   59.9753 H   0  0  0  0  0  0  0  0  0  0  0  0
   30.1869   37.6934   61.5505 H   0  0  0  0  0  0  0  0  0  0  0  0
   30.7482   38.4594   60.0451 H   0  0  0  0  0  0  0  0  0  0  0  0
   31.0791   35.4587   62.2232 H   0  0  0  0  0  0  0  0  0  0  0  0
   30.5903   34.7894   60.6480 H   0  0  0  0  0  0  0  0  0  0  0  0
   32.2762   34.6328   61.1971 H   0  0  0  0  0  0  0  0  0  0  0  0
   33.2391   34.8205   57.3498 H   0  0  0  0  0  0  0  0  0  0  0  0
   34.7586   31.4725   54.7318 H   0  0  0  0  0  0  0  0  0  0  0  0
   34.4076   32.0787   53.0954 H   0  0  0  0  0  0  0  0  0  0  0  0
   36.0939   31.8460   53.6156 H   0  0  0  0  0  0  0  0  0  0  0  0
   34.6184   36.2875   53.5650 H   0  0  0  0  0  0  0  0  0  0  0  0
  1  2  1  0  0  0  0
  1 21  1  0  0  0  0
  1 22  1  0  0  0  0
  1 23  1  0  0  0  0
  2  3  1  0  0  0  0
  3  4  2  0  0  0  0
  3  5  1  0  0  0  0
  5 20  2  0  0  0  0
  5  6  1  0  0  0  0
  6  7  2  0  0  0  0
  6 24  1  0  0  0  0
  7  8  1  0  0  0  0
  7 14  1  0  0  0  0
  8  9  1  0  0  0  0
  8 25  1  0  0  0  0
  9 10  2  0  0  0  0
  9 11  1  0  0  0  0
 11 12  1  0  0  0  0
 11 13  1  0  0  0  0
 11 26  1  0  0  0  0
 12 27  1  0  0  0  0
 12 28  1  0  0  0  0
 12 29  1  0  0  0  0
 13 30  1  0  0  0  0
 13 31  1  0  0  0  0
 13 32  1  0  0  0  0
 14 15  2  0  0  0  0
 14 33  1  0  0  0  0
 15 16  1  0  0  0  0
 15 20  1  0  0  0  0
 16 17  2  0  0  0  0
 16 18  1  0  0  0  0
 18 19  1  0  0  0  0
 19 34  1  0  0  0  0
 19 35  1  0  0  0  0
 19 36  1  0  0  0  0
 20 37  1  0  0  0  0
M  END
$$$$
