ZINC000000057676      none
 OpenBabel11202420153D

 28 30  0  0  0  0  0  0  0  0999 V2000
   33.1757   35.7981   56.6550 O   0  0  0  0  0  0  0  0  0  0  0  0
   33.1940   36.9294   57.1269 C   0  0  0  0  0  0  0  0  0  0  0  0
   33.6196   38.0123   56.3524 C   0  0  0  0  0  0  0  0  0  0  0  0
   33.6381   39.2830   56.8885 C   0  0  0  0  0  0  0  0  0  0  0  0
   33.2400   39.5116   58.1941 C   0  0  0  0  0  0  0  0  0  0  0  0
   32.8119   38.4620   58.9918 C   0  0  0  0  0  0  0  0  0  0  0  0
   32.4169   38.6823   60.2632 O   0  0  0  0  0  0  0  0  0  0  0  0
   32.0044   37.6768   61.0507 C   0  0  0  0  0  0  0  0  0  0  0  0
   31.5887   37.9693   62.4358 C   0  0  0  0  0  0  0  0  0  0  0  0
   32.2570   37.3750   63.5096 C   0  0  0  0  0  0  0  0  0  0  0  0
   31.8633   37.6533   64.8016 C   0  0  0  0  0  0  0  0  0  0  0  0
   30.8090   38.5188   65.0361 C   0  0  0  0  0  0  0  0  0  0  0  0
   30.1426   39.1111   63.9777 C   0  0  0  0  0  0  0  0  0  0  0  0
   30.5252   38.8421   62.6803 C   0  0  0  0  0  0  0  0  0  0  0  0
   31.9552   36.3774   60.5923 C   0  0  0  0  0  0  0  0  0  0  0  0
   32.3470   36.0900   59.2815 C   0  0  0  0  0  0  0  0  0  0  0  0
   32.3076   34.8254   58.8084 O   0  0  0  0  0  0  0  0  0  0  0  0
   32.7844   37.1553   58.4643 C   0  0  0  0  0  0  0  0  0  0  0  0
   33.9344   37.8538   55.3315 H   0  0  0  0  0  0  0  0  0  0  0  0
   33.9686   40.1120   56.2804 H   0  0  0  0  0  0  0  0  0  0  0  0
   33.2631   40.5145   58.5942 H   0  0  0  0  0  0  0  0  0  0  0  0
   33.0800   36.6997   63.3281 H   0  0  0  0  0  0  0  0  0  0  0  0
   32.3789   37.1952   65.6325 H   0  0  0  0  0  0  0  0  0  0  0  0
   30.5021   38.7297   66.0498 H   0  0  0  0  0  0  0  0  0  0  0  0
   29.3208   39.7854   64.1681 H   0  0  0  0  0  0  0  0  0  0  0  0
   30.0045   39.3052   61.8552 H   0  0  0  0  0  0  0  0  0  0  0  0
   31.6153   35.5851   61.2429 H   0  0  0  0  0  0  0  0  0  0  0  0
   32.9736   34.6372   58.1331 H   0  0  0  0  0  0  0  0  0  0  0  0
  1  2  2  0  0  0  0
  2 18  1  0  0  0  0
  2  3  1  0  0  0  0
  3  4  2  0  0  0  0
  3 19  1  0  0  0  0
  4  5  1  0  0  0  0
  4 20  1  0  0  0  0
  5  6  2  0  0  0  0
  5 21  1  0  0  0  0
  6 18  1  0  0  0  0
  6  7  1  0  0  0  0
  7  8  1  0  0  0  0
  8  9  1  0  0  0  0
  8 15  2  0  0  0  0
  9 14  2  0  0  0  0
  9 10  1  0  0  0  0
 10 11  2  0  0  0  0
 10 22  1  0  0  0  0
 11 12  1  0  0  0  0
 11 23  1  0  0  0  0
 12 13  2  0  0  0  0
 12 24  1  0  0  0  0
 13 14  1  0  0  0  0
 13 25  1  0  0  0  0
 14 26  1  0  0  0  0
 15 16  1  0  0  0  0
 15 27  1  0  0  0  0
 16 17  1  0  0  0  0
 16 18  2  0  0  0  0
 17 28  1  0  0  0  0
M  END
$$$$
