ZINC000000029766      none
 OpenBabel11202420163D

 33 35  0  0  0  0  0  0  0  0999 V2000
   31.8346   38.5905   58.1484 O   0  0  0  0  0  0  0  0  0  0  0  0
   32.0012   37.4783   58.6101 C   0  0  0  0  0  0  0  0  0  0  0  0
   31.5316   37.1675   59.9758 C   0  0  0  0  0  0  0  0  0  0  0  0
   32.3769   37.3655   61.0696 C   0  0  0  0  0  0  0  0  0  0  0  0
   31.9334   37.0744   62.3418 C   0  0  0  0  0  0  0  0  0  0  0  0
   30.6507   36.5852   62.5366 C   0  0  0  0  0  0  0  0  0  0  0  0
   30.2232   36.2957   63.7850 F   0  0  0  0  0  0  0  0  0  0  0  0
   29.8073   36.3867   61.4541 C   0  0  0  0  0  0  0  0  0  0  0  0
   30.2405   36.6750   60.1778 C   0  0  0  0  0  0  0  0  0  0  0  0
   32.6142   36.5287   57.8760 N   0  0  0  0  0  0  0  0  0  0  0  0
   32.8259   35.1704   58.4035 C   0  0  0  0  0  0  0  0  0  0  0  0
   32.0155   34.2015   57.5438 C   0  0  0  0  0  0  0  0  0  0  0  0
   32.2364   34.4707   56.0787 C   0  0  0  0  0  0  0  0  0  0  0  0
   31.9264   33.4543   55.1830 C   0  0  0  0  0  0  0  0  0  0  0  0
   32.0979   33.6373   53.8269 C   0  0  0  0  0  0  0  0  0  0  0  0
   32.5807   34.8425   53.3515 C   0  0  0  0  0  0  0  0  0  0  0  0
   32.8918   35.8524   54.2384 C   0  0  0  0  0  0  0  0  0  0  0  0
   32.7244   35.6673   55.6040 C   0  0  0  0  0  0  0  0  0  0  0  0
   33.0921   36.8049   56.5169 C   0  0  0  0  0  0  0  0  0  0  0  0
   33.3762   37.7466   60.9190 H   0  0  0  0  0  0  0  0  0  0  0  0
   32.5864   37.2272   63.1884 H   0  0  0  0  0  0  0  0  0  0  0  0
   28.8092   36.0051   61.6113 H   0  0  0  0  0  0  0  0  0  0  0  0
   29.5826   36.5203   59.3353 H   0  0  0  0  0  0  0  0  0  0  0  0
   33.8841   34.9146   58.3496 H   0  0  0  0  0  0  0  0  0  0  0  0
   32.4855   35.1192   59.4375 H   0  0  0  0  0  0  0  0  0  0  0  0
   32.3205   33.1799   57.7706 H   0  0  0  0  0  0  0  0  0  0  0  0
   30.9563   34.3185   57.7733 H   0  0  0  0  0  0  0  0  0  0  0  0
   31.5485   32.5123   55.5524 H   0  0  0  0  0  0  0  0  0  0  0  0
   31.8557   32.8415   53.1382 H   0  0  0  0  0  0  0  0  0  0  0  0
   32.7138   34.9926   52.2902 H   0  0  0  0  0  0  0  0  0  0  0  0
   33.2690   36.7940   53.8674 H   0  0  0  0  0  0  0  0  0  0  0  0
   32.6352   37.7245   56.1515 H   0  0  0  0  0  0  0  0  0  0  0  0
   34.1760   36.9193   56.5297 H   0  0  0  0  0  0  0  0  0  0  0  0
  1  2  2  0  0  0  0
  2  3  1  0  0  0  0
  2 10  1  0  0  0  0
  3  9  2  0  0  0  0
  3  4  1  0  0  0  0
  4  5  2  0  0  0  0
  4 20  1  0  0  0  0
  5  6  1  0  0  0  0
  5 21  1  0  0  0  0
  6  7  1  0  0  0  0
  6  8  2  0  0  0  0
  8  9  1  0  0  0  0
  8 22  1  0  0  0  0
  9 23  1  0  0  0  0
 10 19  1  0  0  0  0
 10 11  1  0  0  0  0
 11 12  1  0  0  0  0
 11 24  1  0  0  0  0
 11 25  1  0  0  0  0
 12 13  1  0  0  0  0
 12 26  1  0  0  0  0
 12 27  1  0  0  0  0
 13 18  2  0  0  0  0
 13 14  1  0  0  0  0
 14 15  2  0  0  0  0
 14 28  1  0  0  0  0
 15 16  1  0  0  0  0
 15 29  1  0  0  0  0
 16 17  2  0  0  0  0
 16 30  1  0  0  0  0
 17 18  1  0  0  0  0
 17 31  1  0  0  0  0
 18 19  1  0  0  0  0
 19 32  1  0  0  0  0
 19 33  1  0  0  0  0
M  END
$$$$
