ZINC000000035110      none
 OpenBabel11202420153D

 27 27  0  0  0  0  0  0  0  0999 V2000
   33.1670   35.3725   54.4369 C   0  0  0  0  0  0  0  0  0  0  0  0
   33.3076   36.8741   54.6939 C   0  0  0  0  0  0  0  0  0  0  0  0
   32.7381   37.2072   56.0489 C   0  0  0  0  0  0  0  0  0  0  0  0
   31.8182   37.9851   56.1429 O   0  0  0  0  0  0  0  0  0  0  0  0
   33.2565   36.6440   57.1521 O   0  0  0  0  0  0  0  0  0  0  0  0
   32.6967   36.9873   58.3409 C   0  0  0  0  0  0  0  0  0  0  0  0
   32.6967   38.3160   58.7488 C   0  0  0  0  0  0  0  0  0  0  0  0
   33.4767   39.6407   57.6475 Br  0  0  0  0  0  0  0  0  0  0  0  0
   32.1303   38.6701   59.9537 C   0  0  0  0  0  0  0  0  0  0  0  0
   31.5526   37.6903   60.7697 C   0  0  0  0  0  0  0  0  0  0  0  0
   30.9481   38.0649   62.0554 C   0  0  0  0  0  0  0  0  0  0  0  0
   30.9493   39.2245   62.4110 O   0  0  0  0  0  0  0  0  0  0  0  0
   31.5527   36.3525   60.3576 C   0  0  0  0  0  0  0  0  0  0  0  0
   32.1184   36.0068   59.1459 C   0  0  0  0  0  0  0  0  0  0  0  0
   32.1161   34.7089   58.7405 O   0  0  0  0  0  0  0  0  0  0  0  0
   31.5066   33.7572   59.6149 C   0  0  0  0  0  0  0  0  0  0  0  0
   33.7086   34.8199   55.2046 H   0  0  0  0  0  0  0  0  0  0  0  0
   32.1129   35.0961   54.4658 H   0  0  0  0  0  0  0  0  0  0  0  0
   33.5789   35.1315   53.4568 H   0  0  0  0  0  0  0  0  0  0  0  0
   32.7660   37.4265   53.9263 H   0  0  0  0  0  0  0  0  0  0  0  0
   34.3617   37.1505   54.6651 H   0  0  0  0  0  0  0  0  0  0  0  0
   32.1323   39.7032   60.2687 H   0  0  0  0  0  0  0  0  0  0  0  0
   30.5029   37.3078   62.6837 H   0  0  0  0  0  0  0  0  0  0  0  0
   31.1083   35.5932   60.9838 H   0  0  0  0  0  0  0  0  0  0  0  0
   32.0226   33.7632   60.5750 H   0  0  0  0  0  0  0  0  0  0  0  0
   30.4591   34.0194   59.7638 H   0  0  0  0  0  0  0  0  0  0  0  0
   31.5730   32.7630   59.1729 H   0  0  0  0  0  0  0  0  0  0  0  0
  1  2  1  0  0  0  0
  1 17  1  0  0  0  0
  1 18  1  0  0  0  0
  1 19  1  0  0  0  0
  2  3  1  0  0  0  0
  2 20  1  0  0  0  0
  2 21  1  0  0  0  0
  3  4  2  0  0  0  0
  3  5  1  0  0  0  0
  5  6  1  0  0  0  0
  6 14  2  0  0  0  0
  6  7  1  0  0  0  0
  7  8  1  0  0  0  0
  7  9  2  0  0  0  0
  9 10  1  0  0  0  0
  9 22  1  0  0  0  0
 10 11  1  0  0  0  0
 10 13  2  0  0  0  0
 11 12  2  0  0  0  0
 11 23  1  0  0  0  0
 13 14  1  0  0  0  0
 13 24  1  0  0  0  0
 14 15  1  0  0  0  0
 15 16  1  0  0  0  0
 16 25  1  0  0  0  0
 16 26  1  0  0  0  0
 16 27  1  0  0  0  0
M  END
$$$$
