ZINC000000034973      none
 OpenBabel11202420153D

 31 34  0  0  0  0  0  0  0  0999 V2000
   33.5044   40.2155   58.7877 O   0  0  0  0  0  0  0  0  0  0  0  0
   33.4435   39.4147   57.8736 C   0  0  0  0  0  0  0  0  0  0  0  0
   34.0532   39.6818   56.7070 O   0  0  0  0  0  0  0  0  0  0  0  0
   34.0046   38.8149   55.6727 C   0  0  0  0  0  0  0  0  0  0  0  0
   34.6475   39.1240   54.4789 C   0  0  0  0  0  0  0  0  0  0  0  0
   34.6002   38.2403   53.4218 C   0  0  0  0  0  0  0  0  0  0  0  0
   33.9191   37.0364   53.5366 C   0  0  0  0  0  0  0  0  0  0  0  0
   33.8853   36.0990   52.3916 N   0  0  0  0  0  0  0  0  0  0  0  0
   34.4537   36.3853   51.3532 O   0  0  0  0  0  0  0  0  0  0  0  0
   33.2888   35.0414   52.4877 O   0  0  0  0  0  0  0  0  0  0  0  0
   33.2760   36.7130   54.6966 C   0  0  0  0  0  0  0  0  0  0  0  0
   33.3109   37.5971   55.7849 C   0  0  0  0  0  0  0  0  0  0  0  0
   32.6496   37.2652   56.9958 C   0  0  0  0  0  0  0  0  0  0  0  0
   32.7043   38.1586   58.0487 C   0  0  0  0  0  0  0  0  0  0  0  0
   32.0318   37.8558   59.3250 C   0  0  0  0  0  0  0  0  0  0  0  0
   32.4320   38.2702   60.5023 N   0  0  0  0  0  0  0  0  0  0  0  0
   31.5731   37.8030   61.4442 C   0  0  0  0  0  0  0  0  0  0  0  0
   31.5050   37.9282   62.8342 C   0  0  0  0  0  0  0  0  0  0  0  0
   30.4854   37.3138   63.5259 C   0  0  0  0  0  0  0  0  0  0  0  0
   29.5265   36.5721   62.8517 C   0  0  0  0  0  0  0  0  0  0  0  0
   29.5808   36.4397   61.4793 C   0  0  0  0  0  0  0  0  0  0  0  0
   30.5998   37.0511   60.7659 C   0  0  0  0  0  0  0  0  0  0  0  0
   30.9191   37.1079   59.4535 O   0  0  0  0  0  0  0  0  0  0  0  0
   35.1834   40.0563   54.3798 H   0  0  0  0  0  0  0  0  0  0  0  0
   35.1012   38.4853   52.4969 H   0  0  0  0  0  0  0  0  0  0  0  0
   32.7449   35.7761   54.7776 H   0  0  0  0  0  0  0  0  0  0  0  0
   32.1138   36.3326   57.0925 H   0  0  0  0  0  0  0  0  0  0  0  0
   32.2494   38.5043   63.3638 H   0  0  0  0  0  0  0  0  0  0  0  0
   30.4321   37.4096   64.6003 H   0  0  0  0  0  0  0  0  0  0  0  0
   28.7313   36.0947   63.4051 H   0  0  0  0  0  0  0  0  0  0  0  0
   28.8302   35.8609   60.9617 H   0  0  0  0  0  0  0  0  0  0  0  0
  1  2  2  0  0  0  0
  2 14  1  0  0  0  0
  2  3  1  0  0  0  0
  3  4  1  0  0  0  0
  4 12  2  0  0  0  0
  4  5  1  0  0  0  0
  5  6  2  0  0  0  0
  5 24  1  0  0  0  0
  6  7  1  0  0  0  0
  6 25  1  0  0  0  0
  7  8  1  0  0  0  0
  7 11  2  0  0  0  0
  8  9  2  0  0  0  0
  8 10  2  0  0  0  0
 11 12  1  0  0  0  0
 11 26  1  0  0  0  0
 12 13  1  0  0  0  0
 13 14  2  0  0  0  0
 13 27  1  0  0  0  0
 14 15  1  0  0  0  0
 15 23  1  0  0  0  0
 15 16  2  0  0  0  0
 16 17  1  0  0  0  0
 17 22  2  0  0  0  0
 17 18  1  0  0  0  0
 18 19  2  0  0  0  0
 18 28  1  0  0  0  0
 19 20  1  0  0  0  0
 19 29  1  0  0  0  0
 20 21  2  0  0  0  0
 20 30  1  0  0  0  0
 21 22  1  0  0  0  0
 21 31  1  0  0  0  0
 22 23  1  0  0  0  0
M  END
$$$$
