ZINC000000033786      none
 OpenBabel11202420153D

 34 37  0  0  0  0  0  0  0  0999 V2000
   32.1064   38.4477   60.0738 O   0  0  0  0  0  0  0  0  0  0  0  0
   31.7519   37.5787   60.8478 C   0  0  0  0  0  0  0  0  0  0  0  0
   31.1637   37.9428   62.1369 C   0  0  0  0  0  0  0  0  0  0  0  0
   29.8221   38.1406   62.3915 C   0  0  0  0  0  0  0  0  0  0  0  0
   29.7182   38.4712   63.7492 C   0  0  0  0  0  0  0  0  0  0  0  0
   30.9715   38.4628   64.2603 C   0  0  0  0  0  0  0  0  0  0  0  0
   31.3283   38.7579   65.6663 N   0  0  0  0  0  0  0  0  0  0  0  0
   30.3859   39.0600   66.5353 O   0  0  0  0  0  0  0  0  0  0  0  0
   32.5881   38.7184   66.0481 O   0  0  0  0  0  0  0  0  0  0  0  0
   31.8360   38.1395   63.2906 O   0  0  0  0  0  0  0  0  0  0  0  0
   31.9010   36.2804   60.5179 N   0  0  0  0  0  0  0  0  0  0  0  0
   31.4709   35.4152   61.4554 C   0  0  0  0  0  0  0  0  0  0  0  0
   30.9210   35.8790   62.6625 C   0  0  0  0  0  0  0  0  0  0  0  0
   30.4923   34.9898   63.5985 C   0  0  0  0  0  0  0  0  0  0  0  0
   30.5748   33.6059   63.4130 C   0  0  0  0  0  0  0  0  0  0  0  0
   31.0977   33.0837   62.2661 C   0  0  0  0  0  0  0  0  0  0  0  0
   31.5499   33.9530   61.2780 C   0  0  0  0  0  0  0  0  0  0  0  0
   32.2302   33.4092   59.7879 S   0  0  0  0  0  0  0  0  0  0  0  0
   32.6974   34.7225   58.7696 C   0  0  0  0  0  0  0  0  0  0  0  0
   33.2711   34.5411   57.5149 C   0  0  0  0  0  0  0  0  0  0  0  0
   33.6086   35.6402   56.7806 C   0  0  0  0  0  0  0  0  0  0  0  0
   33.3850   36.9293   57.2749 C   0  0  0  0  0  0  0  0  0  0  0  0
   32.8279   37.1573   58.4948 C   0  0  0  0  0  0  0  0  0  0  0  0
   32.4534   36.0740   59.3075 C   0  0  0  0  0  0  0  0  0  0  0  0
   29.0110   38.0570   61.6833 H   0  0  0  0  0  0  0  0  0  0  0  0
   28.8081   38.6917   64.2873 H   0  0  0  0  0  0  0  0  0  0  0  0
   30.8383   36.9400   62.8467 H   0  0  0  0  0  0  0  0  0  0  0  0
   30.0685   35.3666   64.5176 H   0  0  0  0  0  0  0  0  0  0  0  0
   30.2202   32.9422   64.1876 H   0  0  0  0  0  0  0  0  0  0  0  0
   31.1592   32.0145   62.1274 H   0  0  0  0  0  0  0  0  0  0  0  0
   33.4457   33.5475   57.1290 H   0  0  0  0  0  0  0  0  0  0  0  0
   34.0546   35.5133   55.8052 H   0  0  0  0  0  0  0  0  0  0  0  0
   33.6656   37.7756   56.6653 H   0  0  0  0  0  0  0  0  0  0  0  0
   32.6735   38.1697   58.8380 H   0  0  0  0  0  0  0  0  0  0  0  0
  1  2  2  0  0  0  0
  2  3  1  0  0  0  0
  2 11  1  0  0  0  0
  3 10  1  0  0  0  0
  3  4  2  0  0  0  0
  4  5  1  0  0  0  0
  4 25  1  0  0  0  0
  5  6  2  0  0  0  0
  5 26  1  0  0  0  0
  6  7  1  0  0  0  0
  6 10  1  0  0  0  0
  7  8  2  0  0  0  0
  7  9  2  0  0  0  0
 11 24  1  0  0  0  0
 11 12  1  0  0  0  0
 12 17  2  0  0  0  0
 12 13  1  0  0  0  0
 13 14  2  0  0  0  0
 13 27  1  0  0  0  0
 14 15  1  0  0  0  0
 14 28  1  0  0  0  0
 15 16  2  0  0  0  0
 15 29  1  0  0  0  0
 16 17  1  0  0  0  0
 16 30  1  0  0  0  0
 17 18  1  0  0  0  0
 18 19  1  0  0  0  0
 19 24  2  0  0  0  0
 19 20  1  0  0  0  0
 20 21  2  0  0  0  0
 20 31  1  0  0  0  0
 21 22  1  0  0  0  0
 21 32  1  0  0  0  0
 22 23  2  0  0  0  0
 22 33  1  0  0  0  0
 23 24  1  0  0  0  0
 23 34  1  0  0  0  0
M  END
$$$$
