ZINC000000035330      none
 OpenBabel11202420153D

 22 23  0  0  0  0  0  0  0  0999 V2000
   33.5297   40.4480   58.7538 N   0  0  0  0  0  0  0  0  0  0  0  0
   33.3960   39.3914   58.3585 C   0  0  0  0  0  0  0  0  0  0  0  0
   33.2273   38.0596   57.8602 C   0  0  0  0  0  0  0  0  0  0  0  0
   33.5462   37.5514   56.5680 C   0  0  0  0  0  0  0  0  0  0  0  0
   33.2198   36.2938   56.5781 N   0  0  0  0  0  0  0  0  0  0  0  0
   32.7605   35.9390   57.6368 O   0  0  0  0  0  0  0  0  0  0  0  0
   32.7098   36.9433   58.5240 C   0  0  0  0  0  0  0  0  0  0  0  0
   32.2465   36.8870   59.8147 N   0  0  0  0  0  0  0  0  0  0  0  0
   31.2527   35.8150   59.9715 C   0  0  0  0  0  0  0  0  0  0  0  0
   30.8079   35.7489   61.4349 C   0  0  0  0  0  0  0  0  0  0  0  0
   30.2956   37.0241   61.8304 O   0  0  0  0  0  0  0  0  0  0  0  0
   31.2375   38.0914   61.6914 C   0  0  0  0  0  0  0  0  0  0  0  0
   31.6866   38.1812   60.2305 C   0  0  0  0  0  0  0  0  0  0  0  0
   33.9740   38.1023   55.7434 H   0  0  0  0  0  0  0  0  0  0  0  0
   30.3904   36.0227   59.3380 H   0  0  0  0  0  0  0  0  0  0  0  0
   31.6965   34.8622   59.6825 H   0  0  0  0  0  0  0  0  0  0  0  0
   31.6600   35.4882   62.0628 H   0  0  0  0  0  0  0  0  0  0  0  0
   30.0298   34.9936   61.5457 H   0  0  0  0  0  0  0  0  0  0  0  0
   32.1021   37.8988   62.3267 H   0  0  0  0  0  0  0  0  0  0  0  0
   30.7704   39.0307   61.9869 H   0  0  0  0  0  0  0  0  0  0  0  0
   32.4470   38.9557   60.1305 H   0  0  0  0  0  0  0  0  0  0  0  0
   30.8316   38.4270   59.6007 H   0  0  0  0  0  0  0  0  0  0  0  0
  1  2  3  0  0  0  0
  2  3  1  0  0  0  0
  3  7  2  0  0  0  0
  3  4  1  0  0  0  0
  4  5  2  0  0  0  0
  4 14  1  0  0  0  0
  5  6  1  0  0  0  0
  6  7  1  0  0  0  0
  7  8  1  0  0  0  0
  8 13  1  0  0  0  0
  8  9  1  0  0  0  0
  9 10  1  0  0  0  0
  9 15  1  0  0  0  0
  9 16  1  0  0  0  0
 10 11  1  0  0  0  0
 10 17  1  0  0  0  0
 10 18  1  0  0  0  0
 11 12  1  0  0  0  0
 12 13  1  0  0  0  0
 12 19  1  0  0  0  0
 12 20  1  0  0  0  0
 13 21  1  0  0  0  0
 13 22  1  0  0  0  0
M  END
$$$$
