ZINC000000037734      none
 OpenBabel11202420153D

 22 23  0  0  0  0  0  0  0  0999 V2000
   34.3216   32.7629   53.8196 C   0  0  0  0  0  0  0  0  0  0  0  0
   33.9729   33.7793   54.8763 C   0  0  0  0  0  0  0  0  0  0  0  0
   34.2926   35.0777   54.8277 C   0  0  0  0  0  0  0  0  0  0  0  0
   33.8723   35.8256   55.9036 C   0  0  0  0  0  0  0  0  0  0  0  0
   33.1932   35.1175   56.8516 C   0  0  0  0  0  0  0  0  0  0  0  0
   32.6398   35.6727   58.0894 C   0  0  0  0  0  0  0  0  0  0  0  0
   32.7800   36.9394   58.3542 N   0  0  0  0  0  0  0  0  0  0  0  0
   32.2509   37.4703   59.5378 N   0  0  0  0  0  0  0  0  0  0  0  0
   31.5404   36.7855   60.5394 N   0  0  0  0  0  0  0  0  0  0  0  0
   31.2450   37.6513   61.4472 N   0  0  0  0  0  0  0  0  0  0  0  0
   31.6850   38.8128   61.1220 N   0  0  0  0  0  0  0  0  0  0  0  0
   32.3083   38.7631   59.9643 C   0  0  0  0  0  0  0  0  0  0  0  0
   32.9081   39.8225   59.3049 N   0  0  0  0  0  0  0  0  0  0  0  0
   33.0855   33.4338   56.3543 S   0  0  0  0  0  0  0  0  0  0  0  0
   33.9393   31.7859   54.1151 H   0  0  0  0  0  0  0  0  0  0  0  0
   33.8729   33.0569   52.8707 H   0  0  0  0  0  0  0  0  0  0  0  0
   35.4047   32.7110   53.7088 H   0  0  0  0  0  0  0  0  0  0  0  0
   34.8417   35.5078   54.0032 H   0  0  0  0  0  0  0  0  0  0  0  0
   34.0635   36.8850   55.9900 H   0  0  0  0  0  0  0  0  0  0  0  0
   32.1156   35.0310   58.7821 H   0  0  0  0  0  0  0  0  0  0  0  0
   33.3436   39.6779   58.4503 H   0  0  0  0  0  0  0  0  0  0  0  0
   32.8927   40.7094   59.6975 H   0  0  0  0  0  0  0  0  0  0  0  0
  1  2  1  0  0  0  0
  1 15  1  0  0  0  0
  1 16  1  0  0  0  0
  1 17  1  0  0  0  0
  2 14  1  0  0  0  0
  2  3  2  0  0  0  0
  3  4  1  0  0  0  0
  3 18  1  0  0  0  0
  4  5  2  0  0  0  0
  4 19  1  0  0  0  0
  5  6  1  0  0  0  0
  5 14  1  0  0  0  0
  6  7  2  0  0  0  0
  6 20  1  0  0  0  0
  7  8  1  0  0  0  0
  8 12  1  0  0  0  0
  8  9  1  0  0  0  0
  9 10  2  0  0  0  0
 10 11  1  0  0  0  0
 11 12  2  0  0  0  0
 12 13  1  0  0  0  0
 13 21  1  0  0  0  0
 13 22  1  0  0  0  0
M  END
$$$$
