ZINC000000024269      none
 OpenBabel11202420153D

 29 31  0  0  0  0  0  0  0  0999 V2000
   31.1044   32.8335   60.5576 O   0  0  0  0  0  0  0  0  0  0  0  0
   31.6234   33.5628   59.7319 C   0  0  0  0  0  0  0  0  0  0  0  0
   31.8772   33.2536   58.4448 N   0  0  0  0  0  0  0  0  0  0  0  0
   31.6776   32.4079   58.0135 H   0  0  0  0  0  0  0  0  0  0  0  0
   32.4705   34.3472   57.8453 C   0  0  0  0  0  0  0  0  0  0  0  0
   32.9096   34.4272   56.4347 C   0  0  0  0  0  0  0  0  0  0  0  0
   33.4933   35.5971   55.9478 C   0  0  0  0  0  0  0  0  0  0  0  0
   33.9045   35.6636   54.6325 C   0  0  0  0  0  0  0  0  0  0  0  0
   33.7304   34.5768   53.7944 C   0  0  0  0  0  0  0  0  0  0  0  0
   33.1475   33.4156   54.2697 C   0  0  0  0  0  0  0  0  0  0  0  0
   32.7364   33.3347   55.5842 C   0  0  0  0  0  0  0  0  0  0  0  0
   32.5789   35.2973   58.7318 N   0  0  0  0  0  0  0  0  0  0  0  0
   32.0428   34.8280   59.9387 N   0  0  0  0  0  0  0  0  0  0  0  0
   31.9606   35.5414   61.1410 C   0  0  0  0  0  0  0  0  0  0  0  0
   32.0099   34.8679   62.3545 C   0  0  0  0  0  0  0  0  0  0  0  0
   31.9343   35.5747   63.5385 C   0  0  0  0  0  0  0  0  0  0  0  0
   31.7978   36.9509   63.5173 C   0  0  0  0  0  0  0  0  0  0  0  0
   31.7426   37.6247   62.3112 C   0  0  0  0  0  0  0  0  0  0  0  0
   31.8239   36.9242   61.1223 C   0  0  0  0  0  0  0  0  0  0  0  0
   31.7546   37.7706   59.6082 Cl  0  0  0  0  0  0  0  0  0  0  0  0
   33.6262   36.4474   56.6002 H   0  0  0  0  0  0  0  0  0  0  0  0
   34.3602   36.5673   54.2555 H   0  0  0  0  0  0  0  0  0  0  0  0
   34.0507   34.6353   52.7645 H   0  0  0  0  0  0  0  0  0  0  0  0
   33.0143   32.5706   53.6104 H   0  0  0  0  0  0  0  0  0  0  0  0
   32.2819   32.4276   55.9543 H   0  0  0  0  0  0  0  0  0  0  0  0
   32.1117   33.7929   62.3723 H   0  0  0  0  0  0  0  0  0  0  0  0
   31.9771   35.0516   64.4825 H   0  0  0  0  0  0  0  0  0  0  0  0
   31.7345   37.5004   64.4448 H   0  0  0  0  0  0  0  0  0  0  0  0
   31.6363   38.6994   62.2980 H   0  0  0  0  0  0  0  0  0  0  0  0
  1  2  2  0  0  0  0
  2 13  1  0  0  0  0
  2  3  1  0  0  0  0
  3  4  1  0  0  0  0
  3  5  1  0  0  0  0
  5  6  1  0  0  0  0
  5 12  2  0  0  0  0
  6 11  2  0  0  0  0
  6  7  1  0  0  0  0
  7  8  2  0  0  0  0
  7 21  1  0  0  0  0
  8  9  1  0  0  0  0
  8 22  1  0  0  0  0
  9 10  2  0  0  0  0
  9 23  1  0  0  0  0
 10 11  1  0  0  0  0
 10 24  1  0  0  0  0
 11 25  1  0  0  0  0
 12 13  1  0  0  0  0
 13 14  1  0  0  0  0
 14 19  2  0  0  0  0
 14 15  1  0  0  0  0
 15 16  2  0  0  0  0
 15 26  1  0  0  0  0
 16 17  1  0  0  0  0
 16 27  1  0  0  0  0
 17 18  2  0  0  0  0
 17 28  1  0  0  0  0
 18 19  1  0  0  0  0
 18 29  1  0  0  0  0
 19 20  1  0  0  0  0
M  END
$$$$
