ZINC000000041139      none
 OpenBabel11202420153D

 29 31  0  0  0  0  0  0  0  0999 V2000
   33.5723   33.2905   60.5963 O   0  0  0  0  0  0  0  0  0  0  0  0
   32.6447   34.0625   60.7154 C   0  0  0  0  0  0  0  0  0  0  0  0
   32.0413   34.7092   59.4953 C   0  0  0  0  0  0  0  0  0  0  0  0
   32.1655   36.1650   59.6025 N   0  0  0  0  0  0  0  0  0  0  0  0
   31.8933   36.9499   60.7329 N   0  0  0  0  0  0  0  0  0  0  0  0
   32.1146   38.1869   60.4583 N   0  0  0  0  0  0  0  0  0  0  0  0
   32.5316   38.3159   59.1830 C   0  0  0  0  0  0  0  0  0  0  0  0
   32.8989   39.4199   58.4017 C   0  0  0  0  0  0  0  0  0  0  0  0
   33.2829   39.2355   57.1058 C   0  0  0  0  0  0  0  0  0  0  0  0
   33.3257   37.9623   56.5521 C   0  0  0  0  0  0  0  0  0  0  0  0
   32.9725   36.8695   57.2930 C   0  0  0  0  0  0  0  0  0  0  0  0
   32.5716   37.0308   58.6150 C   0  0  0  0  0  0  0  0  0  0  0  0
   32.1086   34.3676   62.0507 C   0  0  0  0  0  0  0  0  0  0  0  0
   31.0699   33.5970   62.5840 C   0  0  0  0  0  0  0  0  0  0  0  0
   30.5753   33.8863   63.8374 C   0  0  0  0  0  0  0  0  0  0  0  0
   31.0981   34.9432   64.5651 C   0  0  0  0  0  0  0  0  0  0  0  0
   30.4647   35.3040   66.1407 Cl  0  0  0  0  0  0  0  0  0  0  0  0
   32.1238   35.7138   64.0414 C   0  0  0  0  0  0  0  0  0  0  0  0
   32.6313   35.4334   62.7911 C   0  0  0  0  0  0  0  0  0  0  0  0
   30.9878   34.4387   59.4242 H   0  0  0  0  0  0  0  0  0  0  0  0
   32.5659   34.3644   58.6043 H   0  0  0  0  0  0  0  0  0  0  0  0
   32.8737   40.4140   58.8230 H   0  0  0  0  0  0  0  0  0  0  0  0
   33.5607   40.0887   56.5048 H   0  0  0  0  0  0  0  0  0  0  0  0
   33.6370   37.8351   55.5258 H   0  0  0  0  0  0  0  0  0  0  0  0
   33.0041   35.8838   56.8531 H   0  0  0  0  0  0  0  0  0  0  0  0
   30.6591   32.7753   62.0162 H   0  0  0  0  0  0  0  0  0  0  0  0
   29.7756   33.2904   64.2515 H   0  0  0  0  0  0  0  0  0  0  0  0
   32.5262   36.5362   64.6141 H   0  0  0  0  0  0  0  0  0  0  0  0
   33.4301   36.0352   62.3837 H   0  0  0  0  0  0  0  0  0  0  0  0
  1  2  2  0  0  0  0
  2  3  1  0  0  0  0
  2 13  1  0  0  0  0
  3  4  1  0  0  0  0
  3 20  1  0  0  0  0
  3 21  1  0  0  0  0
  4 12  1  0  0  0  0
  4  5  1  0  0  0  0
  5  6  2  0  0  0  0
  6  7  1  0  0  0  0
  7 12  2  0  0  0  0
  7  8  1  0  0  0  0
  8  9  2  0  0  0  0
  8 22  1  0  0  0  0
  9 10  1  0  0  0  0
  9 23  1  0  0  0  0
 10 11  2  0  0  0  0
 10 24  1  0  0  0  0
 11 12  1  0  0  0  0
 11 25  1  0  0  0  0
 13 19  2  0  0  0  0
 13 14  1  0  0  0  0
 14 15  2  0  0  0  0
 14 26  1  0  0  0  0
 15 16  1  0  0  0  0
 15 27  1  0  0  0  0
 16 17  1  0  0  0  0
 16 18  2  0  0  0  0
 18 19  1  0  0  0  0
 18 28  1  0  0  0  0
 19 29  1  0  0  0  0
M  END
$$$$
