ZINC000000040975      none
 OpenBabel11202420153D

 31 32  0  0  0  0  0  0  0  0999 V2000
   33.7559   36.1160   55.3860 C   0  0  0  0  0  0  0  0  0  0  0  0
   33.2520   36.2860   56.7961 C   0  0  0  0  0  0  0  0  0  0  0  0
   32.8424   35.1796   57.5190 C   0  0  0  0  0  0  0  0  0  0  0  0
   32.3802   35.3281   58.8103 C   0  0  0  0  0  0  0  0  0  0  0  0
   31.9340   34.1220   59.5960 C   0  0  0  0  0  0  0  0  0  0  0  0
   32.3263   36.5981   59.3872 C   0  0  0  0  0  0  0  0  0  0  0  0
   31.8317   36.7648   60.7700 C   0  0  0  0  0  0  0  0  0  0  0  0
   30.6488   36.9577   60.9734 O   0  0  0  0  0  0  0  0  0  0  0  0
   32.6921   36.7029   61.8056 N   0  0  0  0  0  0  0  0  0  0  0  0
   32.2273   36.8597   63.1051 C   0  0  0  0  0  0  0  0  0  0  0  0
   30.9902   37.0690   63.4310 N   0  0  0  0  0  0  0  0  0  0  0  0
   30.7239   37.1911   64.7179 C   0  0  0  0  0  0  0  0  0  0  0  0
   31.7879   37.0896   65.5168 C   0  0  0  0  0  0  0  0  0  0  0  0
   33.2047   36.8123   64.5070 S   0  0  0  0  0  0  0  0  0  0  0  0
   32.7410   37.7101   58.6522 C   0  0  0  0  0  0  0  0  0  0  0  0
   32.6858   39.0849   59.2668 C   0  0  0  0  0  0  0  0  0  0  0  0
   33.2011   37.5475   57.3619 C   0  0  0  0  0  0  0  0  0  0  0  0
   32.9211   36.1963   54.6897 H   0  0  0  0  0  0  0  0  0  0  0  0
   34.4885   36.8925   55.1660 H   0  0  0  0  0  0  0  0  0  0  0  0
   34.2225   35.1363   55.2825 H   0  0  0  0  0  0  0  0  0  0  0  0
   32.8889   34.1971   57.0730 H   0  0  0  0  0  0  0  0  0  0  0  0
   32.7826   33.7096   60.1418 H   0  0  0  0  0  0  0  0  0  0  0  0
   31.1562   34.4153   60.3013 H   0  0  0  0  0  0  0  0  0  0  0  0
   31.5403   33.3689   58.9134 H   0  0  0  0  0  0  0  0  0  0  0  0
   33.6361   36.5489   61.6433 H   0  0  0  0  0  0  0  0  0  0  0  0
   29.7262   37.3635   65.0938 H   0  0  0  0  0  0  0  0  0  0  0  0
   31.7817   37.1648   66.5941 H   0  0  0  0  0  0  0  0  0  0  0  0
   33.6287   39.2954   59.7715 H   0  0  0  0  0  0  0  0  0  0  0  0
   32.5188   39.8259   58.4850 H   0  0  0  0  0  0  0  0  0  0  0  0
   31.8699   39.1279   59.9883 H   0  0  0  0  0  0  0  0  0  0  0  0
   33.5224   38.4070   56.7922 H   0  0  0  0  0  0  0  0  0  0  0  0
  1  2  1  0  0  0  0
  1 18  1  0  0  0  0
  1 19  1  0  0  0  0
  1 20  1  0  0  0  0
  2 17  2  0  0  0  0
  2  3  1  0  0  0  0
  3  4  2  0  0  0  0
  3 21  1  0  0  0  0
  4  5  1  0  0  0  0
  4  6  1  0  0  0  0
  5 22  1  0  0  0  0
  5 23  1  0  0  0  0
  5 24  1  0  0  0  0
  6  7  1  0  0  0  0
  6 15  2  0  0  0  0
  7  8  2  0  0  0  0
  7  9  1  0  0  0  0
  9 10  1  0  0  0  0
  9 25  1  0  0  0  0
 10 14  1  0  0  0  0
 10 11  2  0  0  0  0
 11 12  1  0  0  0  0
 12 13  2  0  0  0  0
 12 26  1  0  0  0  0
 13 14  1  0  0  0  0
 13 27  1  0  0  0  0
 15 16  1  0  0  0  0
 15 17  1  0  0  0  0
 16 28  1  0  0  0  0
 16 29  1  0  0  0  0
 16 30  1  0  0  0  0
 17 31  1  0  0  0  0
M  END
$$$$
