ZINC000000039829      none
 OpenBabel11202420153D

 23 24  0  0  0  0  0  0  0  0999 V2000
   34.6800   40.0576   54.6275 O   0  0  0  0  0  0  0  0  0  0  0  0
   34.3541   38.9534   55.0249 N   0  0  0  0  0  0  0  0  0  0  0  0
   34.4805   37.9833   54.2994 O   0  0  0  0  0  0  0  0  0  0  0  0
   33.8043   38.7904   56.3895 C   0  0  0  0  0  0  0  0  0  0  0  0
   33.4340   37.5372   56.8404 C   0  0  0  0  0  0  0  0  0  0  0  0
   32.9201   37.3852   58.1148 C   0  0  0  0  0  0  0  0  0  0  0  0
   32.7766   38.4863   58.9380 C   0  0  0  0  0  0  0  0  0  0  0  0
   32.2160   38.3206   60.3271 C   0  0  0  0  0  0  0  0  0  0  0  0
   30.9191   37.7030   60.2665 O   0  0  0  0  0  0  0  0  0  0  0  0
   30.8060   36.8425   61.4142 C   0  0  0  0  0  0  0  0  0  0  0  0
   32.1620   36.9617   62.1438 C   0  0  0  0  0  0  0  0  0  0  0  0
   33.0505   37.4289   61.0975 O   0  0  0  0  0  0  0  0  0  0  0  0
   33.1420   39.7403   58.4852 C   0  0  0  0  0  0  0  0  0  0  0  0
   33.6608   39.8915   57.2129 C   0  0  0  0  0  0  0  0  0  0  0  0
   33.5458   36.6771   56.1971 H   0  0  0  0  0  0  0  0  0  0  0  0
   32.6304   36.4062   58.4668 H   0  0  0  0  0  0  0  0  0  0  0  0
   32.1470   39.2898   60.8211 H   0  0  0  0  0  0  0  0  0  0  0  0
   29.9967   37.1798   62.0618 H   0  0  0  0  0  0  0  0  0  0  0  0
   30.6344   35.8130   61.0999 H   0  0  0  0  0  0  0  0  0  0  0  0
   32.1024   37.6900   62.9526 H   0  0  0  0  0  0  0  0  0  0  0  0
   32.4841   35.9908   62.5206 H   0  0  0  0  0  0  0  0  0  0  0  0
   33.0258   40.6011   59.1269 H   0  0  0  0  0  0  0  0  0  0  0  0
   33.9498   40.8707   56.8605 H   0  0  0  0  0  0  0  0  0  0  0  0
  1  2  2  0  0  0  0
  2  3  2  0  0  0  0
  2  4  1  0  0  0  0
  4 14  2  0  0  0  0
  4  5  1  0  0  0  0
  5  6  2  0  0  0  0
  5 15  1  0  0  0  0
  6  7  1  0  0  0  0
  6 16  1  0  0  0  0
  7  8  1  0  0  0  0
  7 13  2  0  0  0  0
  8 12  1  0  0  0  0
  8  9  1  0  0  0  0
  8 17  1  0  0  0  0
  9 10  1  0  0  0  0
 10 11  1  0  0  0  0
 10 18  1  0  0  0  0
 10 19  1  0  0  0  0
 11 12  1  0  0  0  0
 11 20  1  0  0  0  0
 11 21  1  0  0  0  0
 13 14  1  0  0  0  0
 13 22  1  0  0  0  0
 14 23  1  0  0  0  0
M  END
$$$$
