ZINC000000028388      none
 OpenBabel11202420163D

 32 32  0  0  1  0  0  0  0  0999 V2000
   31.0960   37.1294   67.6918 C   0  0  0  0  0  0  0  0  0  0  0  0
   30.1513   36.8839   66.5135 C   0  0  1  0  0  0  0  0  0  0  0  0
   29.6458   35.9274   66.6462 H   0  0  0  0  0  0  0  0  0  0  0  0
   29.1124   38.0052   66.4505 C   0  0  0  0  0  0  0  0  0  0  0  0
   28.0262   37.7412   67.4612 C   0  0  0  0  0  0  0  0  0  0  0  0
   27.8076   38.5504   68.3467 O   0  0  0  0  0  0  0  0  0  0  0  0
   27.3626   36.7209   67.3904 O   0  0  0  0  0  1  0  0  0  0  0  0
   30.9230   36.8606   65.2637 N   0  3  0  0  0  0  0  0  0  0  0  0
   31.1150   37.8064   64.9694 H   0  0  0  0  0  0  0  0  0  0  0  0
   31.7929   36.3721   65.4147 H   0  0  0  0  0  0  0  0  0  0  0  0
   30.1485   36.1716   64.2228 C   0  0  2  0  0  0  0  0  0  0  0  0
   29.1000   36.4589   64.3001 H   0  0  0  0  0  0  0  0  0  0  0  0
   30.2777   34.6584   64.4087 C   0  0  0  0  0  0  0  0  0  0  0  0
   30.6766   36.5579   62.8653 C   0  0  0  0  0  0  0  0  0  0  0  0
   29.8284   36.5792   61.7740 C   0  0  0  0  0  0  0  0  0  0  0  0
   30.3120   36.9375   60.5296 C   0  0  0  0  0  0  0  0  0  0  0  0
   31.6457   37.2665   60.3748 C   0  0  0  0  0  0  0  0  0  0  0  0
   32.4951   37.2402   61.4651 C   0  0  0  0  0  0  0  0  0  0  0  0
   32.0106   36.8857   62.7103 C   0  0  0  0  0  0  0  0  0  0  0  0
   30.5273   37.1196   68.6215 H   0  0  0  0  0  0  0  0  0  0  0  0
   31.8525   36.3452   67.7202 H   0  0  0  0  0  0  0  0  0  0  0  0
   31.5813   38.0982   67.5726 H   0  0  0  0  0  0  0  0  0  0  0  0
   28.6780   38.0425   65.4516 H   0  0  0  0  0  0  0  0  0  0  0  0
   29.5923   38.9581   66.6737 H   0  0  0  0  0  0  0  0  0  0  0  0
   30.0053   34.3931   65.4301 H   0  0  0  0  0  0  0  0  0  0  0  0
   29.6130   34.1487   63.7113 H   0  0  0  0  0  0  0  0  0  0  0  0
   31.3070   34.3553   64.2167 H   0  0  0  0  0  0  0  0  0  0  0  0
   28.7872   36.3189   61.8943 H   0  0  0  0  0  0  0  0  0  0  0  0
   29.6484   36.9577   59.6777 H   0  0  0  0  0  0  0  0  0  0  0  0
   32.0240   37.5438   59.4020 H   0  0  0  0  0  0  0  0  0  0  0  0
   33.5371   37.4969   61.3441 H   0  0  0  0  0  0  0  0  0  0  0  0
   32.6743   36.8651   63.5621 H   0  0  0  0  0  0  0  0  0  0  0  0
  1  2  1  0  0  0  0
  1 20  1  0  0  0  0
  1 21  1  0  0  0  0
  1 22  1  0  0  0  0
  2  3  1  1  0  0  0
  2  4  1  0  0  0  0
  2  8  1  0  0  0  0
  4  5  1  0  0  0  0
  4 23  1  0  0  0  0
  4 24  1  0  0  0  0
  5  6  2  0  0  0  0
  5  7  1  0  0  0  0
  8  9  1  0  0  0  0
  8 10  1  0  0  0  0
  8 11  1  0  0  0  0
 11 12  1  1  0  0  0
 11 13  1  0  0  0  0
 11 14  1  0  0  0  0
 13 25  1  0  0  0  0
 13 26  1  0  0  0  0
 13 27  1  0  0  0  0
 14 19  2  0  0  0  0
 14 15  1  0  0  0  0
 15 16  2  0  0  0  0
 15 28  1  0  0  0  0
 16 17  1  0  0  0  0
 16 29  1  0  0  0  0
 17 18  2  0  0  0  0
 17 30  1  0  0  0  0
 18 19  1  0  0  0  0
 18 31  1  0  0  0  0
 19 32  1  0  0  0  0
M  CHG  1   8   1
M  END
$$$$
