ZINC000000027389      none
 OpenBabel11202420153D

 28 29  0  0  0  0  0  0  0  0999 V2000
   31.6306   36.3341   61.1458 C   0  0  0  0  0  0  0  0  0  0  0  0
   30.7160   35.9749   62.2884 C   0  0  0  0  0  0  0  0  0  0  0  0
   29.3921   35.8933   62.1533 C   0  0  0  0  0  0  0  0  0  0  0  0
   28.7088   35.4514   63.7157 S   0  0  0  0  0  0  0  0  0  0  0  0
   30.2739   35.4186   64.4029 C   0  0  0  0  0  0  0  0  0  0  0  0
   30.5536   35.1188   65.7270 N   0  0  0  0  0  2  0  0  0  0  0  0
   29.9171   36.0502   66.9391 S   0  0  0  0  0  0  0  0  0  0  0  0
   30.5023   35.5891   68.1491 O   0  0  0  0  0  0  0  0  0  0  0  0
   28.5136   36.0895   66.7201 O   0  0  0  0  0  0  0  0  0  0  0  0
   30.5045   37.6938   66.6971 C   0  0  0  0  0  0  0  0  0  0  0  0
   29.6325   38.6866   66.2901 C   0  0  0  0  0  0  0  0  0  0  0  0
   30.0925   39.9761   66.1005 C   0  0  0  0  0  0  0  0  0  0  0  0
   31.4238   40.2750   66.3224 C   0  0  0  0  0  0  0  0  0  0  0  0
   32.2978   39.2811   66.7245 C   0  0  0  0  0  0  0  0  0  0  0  0
   33.9711   39.6542   66.9975 Cl  0  0  0  0  0  0  0  0  0  0  0  0
   31.8366   37.9903   66.9146 C   0  0  0  0  0  0  0  0  0  0  0  0
   32.7870   36.9081   67.3582 C   0  0  0  0  0  0  0  0  0  0  0  0
   31.1608   35.7204   63.5061 N   0  0  0  0  0  0  0  0  0  0  0  0
   31.7649   37.4153   61.1140 H   0  0  0  0  0  0  0  0  0  0  0  0
   32.5975   35.8518   61.2890 H   0  0  0  0  0  0  0  0  0  0  0  0
   31.1908   35.9949   60.2080 H   0  0  0  0  0  0  0  0  0  0  0  0
   28.8355   36.0679   61.2443 H   0  0  0  0  0  0  0  0  0  0  0  0
   28.5914   38.4544   66.1206 H   0  0  0  0  0  0  0  0  0  0  0  0
   29.4107   40.7513   65.7830 H   0  0  0  0  0  0  0  0  0  0  0  0
   31.7823   41.2835   66.1782 H   0  0  0  0  0  0  0  0  0  0  0  0
   32.8073   36.8663   68.4472 H   0  0  0  0  0  0  0  0  0  0  0  0
   32.4538   35.9480   66.9640 H   0  0  0  0  0  0  0  0  0  0  0  0
   33.7870   37.1271   66.9843 H   0  0  0  0  0  0  0  0  0  0  0  0
  1  2  1  0  0  0  0
  1 19  1  0  0  0  0
  1 20  1  0  0  0  0
  1 21  1  0  0  0  0
  2 18  1  0  0  0  0
  2  3  2  0  0  0  0
  3  4  1  0  0  0  0
  3 22  1  0  0  0  0
  4  5  1  0  0  0  0
  5  6  1  0  0  0  0
  5 18  2  0  0  0  0
  6  7  1  0  0  0  0
  7  8  2  0  0  0  0
  7  9  2  0  0  0  0
  7 10  1  0  0  0  0
 10 16  2  0  0  0  0
 10 11  1  0  0  0  0
 11 12  2  0  0  0  0
 11 23  1  0  0  0  0
 12 13  1  0  0  0  0
 12 24  1  0  0  0  0
 13 14  2  0  0  0  0
 13 25  1  0  0  0  0
 14 15  1  0  0  0  0
 14 16  1  0  0  0  0
 16 17  1  0  0  0  0
 17 26  1  0  0  0  0
 17 27  1  0  0  0  0
 17 28  1  0  0  0  0
M  END
$$$$
