ZINC000000033641      none
 OpenBabel11202420153D

 44 47  0  0  0  0  0  0  0  0999 V2000
   29.8679   39.4676   65.8214 C   0  0  0  0  0  0  0  0  0  0  0  0
   30.5768   38.4275   64.9516 C   0  0  0  0  0  0  0  0  0  0  0  0
   31.0428   37.3228   65.7935 N   0  0  0  0  0  0  0  0  0  0  0  0
   31.9902   37.5797   66.8810 C   0  0  0  0  0  0  0  0  0  0  0  0
   33.2772   38.1747   66.3060 C   0  0  0  0  0  0  0  0  0  0  0  0
   30.5878   36.0359   65.5614 C   0  0  0  0  0  0  0  0  0  0  0  0
   30.8177   35.4478   64.3580 C   0  0  0  0  0  0  0  0  0  0  0  0
   31.5110   36.1479   63.3689 N   0  0  0  0  0  0  0  0  0  0  0  0
   32.8199   36.6450   63.4543 N   0  0  0  0  0  0  0  0  0  0  0  0
   33.1277   37.2349   62.3533 N   0  0  0  0  0  0  0  0  0  0  0  0
   32.0907   37.1786   61.4853 C   0  0  0  0  0  0  0  0  0  0  0  0
   31.9075   37.6536   60.1802 C   0  0  0  0  0  0  0  0  0  0  0  0
   30.7226   37.4408   59.5384 C   0  0  0  0  0  0  0  0  0  0  0  0
   29.6888   36.7562   60.1646 C   0  0  0  0  0  0  0  0  0  0  0  0
   29.8442   36.2788   61.4470 C   0  0  0  0  0  0  0  0  0  0  0  0
   31.0460   36.4804   62.1160 C   0  0  0  0  0  0  0  0  0  0  0  0
   30.3453   34.0829   64.0863 C   0  0  0  0  0  0  0  0  0  0  0  0
   30.5577   33.5689   63.0051 O   0  0  0  0  0  0  0  0  0  0  0  0
   29.6100   33.3352   65.1312 C   0  0  0  0  0  0  0  0  0  0  0  0
   29.1557   32.0445   64.8932 C   0  0  0  0  0  0  0  0  0  0  0  0
   28.4684   31.3616   65.8854 C   0  0  0  0  0  0  0  0  0  0  0  0
   28.2325   31.9568   67.1095 C   0  0  0  0  0  0  0  0  0  0  0  0
   28.6803   33.2442   67.3618 C   0  0  0  0  0  0  0  0  0  0  0  0
   29.3704   33.9407   66.3771 C   0  0  0  0  0  0  0  0  0  0  0  0
   29.8523   35.3181   66.6219 C   0  0  0  0  0  0  0  0  0  0  0  0
   29.6475   35.8547   67.6924 O   0  0  0  0  0  0  0  0  0  0  0  0
   29.5212   40.2896   65.1951 H   0  0  0  0  0  0  0  0  0  0  0  0
   29.0154   39.0051   66.3187 H   0  0  0  0  0  0  0  0  0  0  0  0
   30.5623   39.8492   66.5701 H   0  0  0  0  0  0  0  0  0  0  0  0
   31.4294   38.8899   64.4543 H   0  0  0  0  0  0  0  0  0  0  0  0
   29.8825   38.0460   64.2030 H   0  0  0  0  0  0  0  0  0  0  0  0
   31.5496   38.2821   67.5884 H   0  0  0  0  0  0  0  0  0  0  0  0
   32.2190   36.6446   67.3921 H   0  0  0  0  0  0  0  0  0  0  0  0
   33.9822   38.3659   67.1151 H   0  0  0  0  0  0  0  0  0  0  0  0
   33.7179   37.4723   65.5985 H   0  0  0  0  0  0  0  0  0  0  0  0
   33.0485   39.1099   65.7949 H   0  0  0  0  0  0  0  0  0  0  0  0
   32.7036   38.1875   59.6825 H   0  0  0  0  0  0  0  0  0  0  0  0
   30.5866   37.8092   58.5324 H   0  0  0  0  0  0  0  0  0  0  0  0
   28.7572   36.5968   59.6421 H   0  0  0  0  0  0  0  0  0  0  0  0
   29.0376   35.7464   61.9291 H   0  0  0  0  0  0  0  0  0  0  0  0
   29.3369   31.5741   63.9381 H   0  0  0  0  0  0  0  0  0  0  0  0
   28.1157   30.3580   65.6999 H   0  0  0  0  0  0  0  0  0  0  0  0
   27.6961   31.4154   67.8748 H   0  0  0  0  0  0  0  0  0  0  0  0
   28.4937   33.7043   68.3210 H   0  0  0  0  0  0  0  0  0  0  0  0
  1  2  1  0  0  0  0
  1 27  1  0  0  0  0
  1 28  1  0  0  0  0
  1 29  1  0  0  0  0
  2  3  1  0  0  0  0
  2 30  1  0  0  0  0
  2 31  1  0  0  0  0
  3  4  1  0  0  0  0
  3  6  1  0  0  0  0
  4  5  1  0  0  0  0
  4 32  1  0  0  0  0
  4 33  1  0  0  0  0
  5 34  1  0  0  0  0
  5 35  1  0  0  0  0
  5 36  1  0  0  0  0
  6 25  1  0  0  0  0
  6  7  2  0  0  0  0
  7  8  1  0  0  0  0
  7 17  1  0  0  0  0
  8 16  1  0  0  0  0
  8  9  1  0  0  0  0
  9 10  2  0  0  0  0
 10 11  1  0  0  0  0
 11 16  2  0  0  0  0
 11 12  1  0  0  0  0
 12 13  2  0  0  0  0
 12 37  1  0  0  0  0
 13 14  1  0  0  0  0
 13 38  1  0  0  0  0
 14 15  2  0  0  0  0
 14 39  1  0  0  0  0
 15 16  1  0  0  0  0
 15 40  1  0  0  0  0
 17 18  2  0  0  0  0
 17 19  1  0  0  0  0
 19 24  2  0  0  0  0
 19 20  1  0  0  0  0
 20 21  2  0  0  0  0
 20 41  1  0  0  0  0
 21 22  1  0  0  0  0
 21 42  1  0  0  0  0
 22 23  2  0  0  0  0
 22 43  1  0  0  0  0
 23 24  1  0  0  0  0
 23 44  1  0  0  0  0
 24 25  1  0  0  0  0
 25 26  2  0  0  0  0
M  END
$$$$
