ZINC000000008767      none
 OpenBabel11202420153D

 27 29  0  0  0  0  0  0  0  0999 V2000
   31.7044   37.7497   64.2165 C   0  0  0  0  0  0  0  0  0  0  0  0
   30.5504   37.2870   63.3248 C   0  0  0  0  0  0  0  0  0  0  0  0
   30.5798   35.8752   62.9349 N   0  0  0  0  0  0  0  0  0  0  0  0
   31.2288   35.4929   61.7841 C   0  0  0  0  0  0  0  0  0  0  0  0
   31.2031   34.2303   61.5103 N   0  0  0  0  0  0  0  0  0  0  0  0
   31.9437   33.6331   60.1459 S   0  0  0  0  0  0  0  0  0  0  0  0
   33.1792   33.0675   60.5617 O   0  0  0  0  0  0  0  0  0  0  0  0
   30.9549   32.9143   59.4213 O   0  0  0  0  0  0  0  0  0  0  0  0
   32.3327   35.0729   59.1961 C   0  0  0  0  0  0  0  0  0  0  0  0
   32.8684   35.1551   57.5343 S   0  0  0  0  0  0  0  0  0  0  0  0
   32.9454   36.9111   57.6146 C   0  0  0  0  0  0  0  0  0  0  0  0
   33.4233   37.9505   56.3089 Cl  0  0  0  0  0  0  0  0  0  0  0  0
   32.5817   37.3233   58.8302 C   0  0  0  0  0  0  0  0  0  0  0  0
   32.2377   36.3188   59.7260 C   0  0  0  0  0  0  0  0  0  0  0  0
   31.8158   36.4908   61.0690 N   0  0  0  0  0  0  0  0  0  0  0  0
   29.1802   37.9286   63.5529 C   0  0  0  0  0  0  0  0  0  0  0  0
   29.9963   38.2888   62.3098 C   0  0  0  0  0  0  0  0  0  0  0  0
   31.3949   38.6264   64.7856 H   0  0  0  0  0  0  0  0  0  0  0  0
   31.9768   36.9483   64.9032 H   0  0  0  0  0  0  0  0  0  0  0  0
   32.5635   38.0043   63.5959 H   0  0  0  0  0  0  0  0  0  0  0  0
   30.1416   35.2099   63.4882 H   0  0  0  0  0  0  0  0  0  0  0  0
   32.5568   38.3688   59.1002 H   0  0  0  0  0  0  0  0  0  0  0  0
   31.9548   37.3513   61.4945 H   0  0  0  0  0  0  0  0  0  0  0  0
   28.3007   37.3002   63.4128 H   0  0  0  0  0  0  0  0  0  0  0  0
   29.1010   38.6803   64.3381 H   0  0  0  0  0  0  0  0  0  0  0  0
   30.4539   39.2776   62.2773 H   0  0  0  0  0  0  0  0  0  0  0  0
   29.6536   37.8975   61.3520 H   0  0  0  0  0  0  0  0  0  0  0  0
  1  2  1  0  0  0  0
  1 18  1  0  0  0  0
  1 19  1  0  0  0  0
  1 20  1  0  0  0  0
  2 17  1  0  0  0  0
  2  3  1  0  0  0  0
  2 16  1  0  0  0  0
  3  4  1  0  0  0  0
  3 21  1  0  0  0  0
  4 15  1  0  0  0  0
  4  5  2  0  0  0  0
  5  6  1  0  0  0  0
  6  7  2  0  0  0  0
  6  8  2  0  0  0  0
  6  9  1  0  0  0  0
  9 14  2  0  0  0  0
  9 10  1  0  0  0  0
 10 11  1  0  0  0  0
 11 12  1  0  0  0  0
 11 13  2  0  0  0  0
 13 14  1  0  0  0  0
 13 22  1  0  0  0  0
 14 15  1  0  0  0  0
 15 23  1  0  0  0  0
 16 17  1  0  0  0  0
 16 24  1  0  0  0  0
 16 25  1  0  0  0  0
 17 26  1  0  0  0  0
 17 27  1  0  0  0  0
M  END
$$$$
