ZINC000000001332      none
 OpenBabel11202420153D

 28 29  0  0  1  0  0  0  0  0999 V2000
   33.5123   33.8336   56.7943 C   0  0  0  0  0  0  0  0  0  0  0  0
   33.8161   34.2092   55.3426 C   0  0  2  0  0  0  0  0  0  0  0  0
   34.4174   33.4344   54.8671 H   0  0  0  0  0  0  0  0  0  0  0  0
   34.4980   35.4811   55.2845 O   0  0  0  0  0  0  0  0  0  0  0  0
   34.2923   35.9619   53.9382 C   0  0  2  0  0  0  0  0  0  0  0  0
   34.9680   35.4571   53.2477 H   0  0  0  0  0  0  0  0  0  0  0  0
   34.4931   37.4118   53.8783 N   0  0  0  0  0  0  0  0  0  0  0  0
   34.2181   38.1816   54.9788 C   0  0  0  0  0  0  0  0  0  0  0  0
   34.4034   39.5182   54.9225 C   0  0  0  0  0  0  0  0  0  0  0  0
   34.1380   40.2922   55.9974 F   0  0  0  0  0  0  0  0  0  0  0  0
   34.8809   40.0976   53.7201 C   0  0  0  0  0  0  0  0  0  0  0  0
   35.0563   41.3004   53.6451 O   0  0  0  0  0  0  0  0  0  0  0  0
   35.1393   39.3050   52.6605 N   0  0  0  0  0  0  0  0  0  0  0  0
   35.4665   39.6945   51.8347 H   0  0  0  0  0  0  0  0  0  0  0  0
   34.9509   37.9750   52.7456 C   0  0  0  0  0  0  0  0  0  0  0  0
   35.1937   37.2729   51.7829 O   0  0  0  0  0  0  0  0  0  0  0  0
   32.8242   35.6083   53.6128 C   0  0  1  0  0  0  0  0  0  0  0  0
   32.1716   36.4554   53.8242 H   0  0  0  0  0  0  0  0  0  0  0  0
   32.6970   35.2050   52.2478 O   0  0  0  0  0  0  0  0  0  0  0  0
   32.5037   34.4288   54.5580 C   0  0  1  0  0  0  0  0  0  0  0  0
   31.6925   34.6926   55.2366 H   0  0  0  0  0  0  0  0  0  0  0  0
   32.1672   33.2599   53.8080 O   0  0  0  0  0  0  0  0  0  0  0  0
   32.9269   32.9144   56.8168 H   0  0  0  0  0  0  0  0  0  0  0  0
   34.4473   33.6823   57.3338 H   0  0  0  0  0  0  0  0  0  0  0  0
   32.9463   34.6365   57.2666 H   0  0  0  0  0  0  0  0  0  0  0  0
   33.8546   37.7216   55.8859 H   0  0  0  0  0  0  0  0  0  0  0  0
   31.8073   34.9147   52.0047 H   0  0  0  0  0  0  0  0  0  0  0  0
   32.8581   32.9733   53.1953 H   0  0  0  0  0  0  0  0  0  0  0  0
  1  2  1  0  0  0  0
  1 23  1  0  0  0  0
  1 24  1  0  0  0  0
  1 25  1  0  0  0  0
  2  3  1  6  0  0  0
  2 20  1  0  0  0  0
  2  4  1  0  0  0  0
  4  5  1  0  0  0  0
  5  6  1  6  0  0  0
  5  7  1  0  0  0  0
  5 17  1  0  0  0  0
  7 15  1  0  0  0  0
  7  8  1  0  0  0  0
  8  9  2  0  0  0  0
  8 26  1  0  0  0  0
  9 10  1  0  0  0  0
  9 11  1  0  0  0  0
 11 12  2  0  0  0  0
 11 13  1  0  0  0  0
 13 14  1  0  0  0  0
 13 15  1  0  0  0  0
 15 16  2  0  0  0  0
 17 18  1  1  0  0  0
 17 19  1  0  0  0  0
 17 20  1  0  0  0  0
 19 27  1  0  0  0  0
 20 21  1  1  0  0  0
 20 22  1  0  0  0  0
 22 28  1  0  0  0  0
M  END
$$$$
