ZINC000000040116      none
 OpenBabel11202420153D

 27 27  0  0  0  0  0  0  0  0999 V2000
   31.4890   33.7234   60.1104 C   0  0  0  0  0  0  0  0  0  0  0  0
   31.5763   34.9793   60.7864 O   0  0  0  0  0  0  0  0  0  0  0  0
   32.0489   36.0336   60.0708 C   0  0  0  0  0  0  0  0  0  0  0  0
   32.1543   37.2844   60.6651 C   0  0  0  0  0  0  0  0  0  0  0  0
   32.6396   38.3597   59.9443 C   0  0  0  0  0  0  0  0  0  0  0  0
   33.0123   38.2000   58.6253 C   0  0  0  0  0  0  0  0  0  0  0  0
   32.9048   36.9473   58.0170 C   0  0  0  0  0  0  0  0  0  0  0  0
   33.3017   36.7724   56.6073 C   0  0  0  0  0  0  0  0  0  0  0  0
   33.7518   37.7835   55.9297 N   0  0  0  0  0  0  0  0  0  0  0  0
   34.1288   37.6173   54.5906 N   0  0  0  0  0  0  0  0  0  0  0  0
   34.5964   38.6673   53.8869 C   0  0  0  0  0  0  0  0  0  0  0  0
   34.7295   40.2042   54.6293 S   0  0  0  0  0  0  0  0  0  0  0  0
   35.0705   38.4584   52.2029 S   0  0  0  0  0  0  0  0  0  0  0  0
   35.5922   40.1468   51.8113 C   0  0  0  0  0  0  0  0  0  0  0  0
   32.4198   35.8614   58.7483 C   0  0  0  0  0  0  0  0  0  0  0  0
   32.4802   33.4249   59.7691 H   0  0  0  0  0  0  0  0  0  0  0  0
   31.0977   32.9695   60.7935 H   0  0  0  0  0  0  0  0  0  0  0  0
   30.8226   33.8177   59.2529 H   0  0  0  0  0  0  0  0  0  0  0  0
   31.8596   37.4166   61.6957 H   0  0  0  0  0  0  0  0  0  0  0  0
   32.7228   39.3288   60.4136 H   0  0  0  0  0  0  0  0  0  0  0  0
   33.3866   39.0432   58.0637 H   0  0  0  0  0  0  0  0  0  0  0  0
   33.2175   35.8029   56.1389 H   0  0  0  0  0  0  0  0  0  0  0  0
   34.0533   36.7466   54.1700 H   0  0  0  0  0  0  0  0  0  0  0  0
   35.9255   40.1929   50.7746 H   0  0  0  0  0  0  0  0  0  0  0  0
   34.7537   40.8285   51.9541 H   0  0  0  0  0  0  0  0  0  0  0  0
   36.4116   40.4357   52.4696 H   0  0  0  0  0  0  0  0  0  0  0  0
   32.3338   34.8902   58.2838 H   0  0  0  0  0  0  0  0  0  0  0  0
  1  2  1  0  0  0  0
  1 16  1  0  0  0  0
  1 17  1  0  0  0  0
  1 18  1  0  0  0  0
  2  3  1  0  0  0  0
  3 15  2  0  0  0  0
  3  4  1  0  0  0  0
  4  5  2  0  0  0  0
  4 19  1  0  0  0  0
  5  6  1  0  0  0  0
  5 20  1  0  0  0  0
  6  7  2  0  0  0  0
  6 21  1  0  0  0  0
  7  8  1  0  0  0  0
  7 15  1  0  0  0  0
  8  9  2  0  0  0  0
  8 22  1  0  0  0  0
  9 10  1  0  0  0  0
 10 11  1  0  0  0  0
 10 23  1  0  0  0  0
 11 12  2  0  0  0  0
 11 13  1  0  0  0  0
 13 14  1  0  0  0  0
 14 24  1  0  0  0  0
 14 25  1  0  0  0  0
 14 26  1  0  0  0  0
 15 27  1  0  0  0  0
M  END
$$$$
