ZINC000000046577      none
 OpenBabel11202420153D

 49 52  0  0  0  0  0  0  0  0999 V2000
   30.4639   39.7872   66.5676 C   0  0  0  0  0  0  0  0  0  0  0  0
   30.5904   38.2926   66.4221 C   0  0  0  0  0  0  0  0  0  0  0  0
   31.1637   37.7513   65.2828 C   0  0  0  0  0  0  0  0  0  0  0  0
   31.6059   38.5723   64.2962 O   0  5  0  0  0  0  0  0  0  0  0  0
   31.2846   36.3712   65.1394 C   0  0  0  0  0  0  0  0  0  0  0  0
   31.9108   35.7995   63.8935 C   0  0  0  0  0  0  0  0  0  0  0  0
   31.3688   36.4865   62.7135 N   0  3  0  0  0  0  0  0  0  0  0  0
   31.2773   37.4717   62.9117 H   0  0  0  0  0  0  0  0  0  0  0  0
   30.0502   35.9300   62.3879 C   0  0  0  0  0  0  0  0  0  0  0  0
   29.4451   36.6977   61.2104 C   0  0  0  0  0  0  0  0  0  0  0  0
   30.3687   36.5667   59.9959 C   0  0  0  0  0  0  0  0  0  0  0  0
   31.7623   37.0805   60.3690 C   0  0  0  0  0  0  0  0  0  0  0  0
   32.2808   36.2998   61.5787 C   0  0  0  0  0  0  0  0  0  0  0  0
   30.8389   35.5330   66.1213 C   0  0  0  0  0  0  0  0  0  0  0  0
   30.2587   36.0629   67.2761 C   0  0  0  0  0  0  0  0  0  0  0  0
   29.7701   35.1831   68.3508 C   0  0  0  0  0  0  0  0  0  0  0  0
   29.8775   33.7116   68.2410 C   0  0  0  0  0  0  0  0  0  0  0  0
   28.8404   32.9739   67.6679 C   0  0  0  0  0  0  0  0  0  0  0  0
   28.9484   31.6025   67.5650 C   0  0  0  0  0  0  0  0  0  0  0  0
   30.0779   30.9572   68.0367 C   0  0  0  0  0  0  0  0  0  0  0  0
   31.1076   31.6821   68.6102 C   0  0  0  0  0  0  0  0  0  0  0  0
   31.0138   33.0543   68.7152 C   0  0  0  0  0  0  0  0  0  0  0  0
   29.2075   35.7758   69.4653 C   0  0  0  0  0  0  0  0  0  0  0  0
   29.1214   37.1766   69.5353 C   0  0  0  0  0  0  0  0  0  0  0  0
   28.6236   37.6911   70.5214 O   0  0  0  0  0  0  0  0  0  0  0  0
   29.5721   37.9639   68.5460 O   0  0  0  0  0  0  0  0  0  0  0  0
   30.1332   37.4547   67.4281 C   0  0  0  0  0  0  0  0  0  0  0  0
   29.5093   40.1129   66.1540 H   0  0  0  0  0  0  0  0  0  0  0  0
   30.5131   40.0551   67.6230 H   0  0  0  0  0  0  0  0  0  0  0  0
   31.2776   40.2748   66.0306 H   0  0  0  0  0  0  0  0  0  0  0  0
   32.9909   35.9409   63.9319 H   0  0  0  0  0  0  0  0  0  0  0  0
   31.6857   34.7350   63.8294 H   0  0  0  0  0  0  0  0  0  0  0  0
   30.1561   34.8785   62.1209 H   0  0  0  0  0  0  0  0  0  0  0  0
   29.3945   36.0198   63.2538 H   0  0  0  0  0  0  0  0  0  0  0  0
   29.3399   37.7496   61.4760 H   0  0  0  0  0  0  0  0  0  0  0  0
   28.4662   36.2833   60.9696 H   0  0  0  0  0  0  0  0  0  0  0  0
   29.9713   37.1574   59.1705 H   0  0  0  0  0  0  0  0  0  0  0  0
   30.4337   35.5201   59.6985 H   0  0  0  0  0  0  0  0  0  0  0  0
   31.7052   38.1403   60.6171 H   0  0  0  0  0  0  0  0  0  0  0  0
   32.4403   36.9398   59.5271 H   0  0  0  0  0  0  0  0  0  0  0  0
   33.2729   36.6629   61.8468 H   0  0  0  0  0  0  0  0  0  0  0  0
   32.3378   35.2402   61.3294 H   0  0  0  0  0  0  0  0  0  0  0  0
   30.9353   34.4636   66.0054 H   0  0  0  0  0  0  0  0  0  0  0  0
   27.9568   33.4761   67.3028 H   0  0  0  0  0  0  0  0  0  0  0  0
   28.1481   31.0309   67.1187 H   0  0  0  0  0  0  0  0  0  0  0  0
   30.1561   29.8830   67.9571 H   0  0  0  0  0  0  0  0  0  0  0  0
   31.9863   31.1724   68.9768 H   0  0  0  0  0  0  0  0  0  0  0  0
   31.8183   33.6191   69.1631 H   0  0  0  0  0  0  0  0  0  0  0  0
   28.8364   35.1668   70.2764 H   0  0  0  0  0  0  0  0  0  0  0  0
  1  2  1  0  0  0  0
  1 28  1  0  0  0  0
  1 29  1  0  0  0  0
  1 30  1  0  0  0  0
  2 27  2  0  0  0  0
  2  3  1  0  0  0  0
  3  4  1  0  0  0  0
  3  5  2  0  0  0  0
  5  6  1  0  0  0  0
  5 14  1  0  0  0  0
  6  7  1  0  0  0  0
  6 31  1  0  0  0  0
  6 32  1  0  0  0  0
  7  8  1  0  0  0  0
  7 13  1  0  0  0  0
  7  9  1  0  0  0  0
  9 10  1  0  0  0  0
  9 33  1  0  0  0  0
  9 34  1  0  0  0  0
 10 11  1  0  0  0  0
 10 35  1  0  0  0  0
 10 36  1  0  0  0  0
 11 12  1  0  0  0  0
 11 37  1  0  0  0  0
 11 38  1  0  0  0  0
 12 13  1  0  0  0  0
 12 39  1  0  0  0  0
 12 40  1  0  0  0  0
 13 41  1  0  0  0  0
 13 42  1  0  0  0  0
 14 15  2  0  0  0  0
 14 43  1  0  0  0  0
 15 27  1  0  0  0  0
 15 16  1  0  0  0  0
 16 17  1  0  0  0  0
 16 23  2  0  0  0  0
 17 22  2  0  0  0  0
 17 18  1  0  0  0  0
 18 19  2  0  0  0  0
 18 44  1  0  0  0  0
 19 20  1  0  0  0  0
 19 45  1  0  0  0  0
 20 21  2  0  0  0  0
 20 46  1  0  0  0  0
 21 22  1  0  0  0  0
 21 47  1  0  0  0  0
 22 48  1  0  0  0  0
 23 24  1  0  0  0  0
 23 49  1  0  0  0  0
 24 25  2  0  0  0  0
 24 26  1  0  0  0  0
 26 27  1  0  0  0  0
M  CHG  2   4  -1   7   1
M  END
$$$$
