ZINC000000036672      none
 OpenBabel11202420153D

 34 35  0  0  0  0  0  0  0  0999 V2000
   30.7997   37.6803   60.4971 O   0  0  0  0  0  0  0  0  0  0  0  0
   31.1756   36.5320   60.3915 C   0  0  0  0  0  0  0  0  0  0  0  0
   30.6412   35.4755   61.3238 C   0  0  0  0  0  0  0  0  0  0  0  0
   30.9737   35.8317   62.7096 N   0  0  0  0  0  0  0  0  0  0  0  0
   29.9821   36.7605   63.2667 C   0  0  0  0  0  0  0  0  0  0  0  0
   30.2774   36.9948   64.7499 C   0  0  0  0  0  0  0  0  0  0  0  0
   31.6870   37.5737   64.8995 C   0  0  0  0  0  0  0  0  0  0  0  0
   32.6957   36.6099   64.2684 C   0  0  0  0  0  0  0  0  0  0  0  0
   32.3304   36.3868   62.7992 C   0  0  0  0  0  0  0  0  0  0  0  0
   32.0712   36.2008   59.4402 N   0  0  0  0  0  0  0  0  0  0  0  0
   32.5717   37.1829   58.5783 C   0  0  0  0  0  0  0  0  0  0  0  0
   32.6804   38.4983   59.0107 C   0  0  0  0  0  0  0  0  0  0  0  0
   33.1805   39.4647   58.1602 C   0  0  0  0  0  0  0  0  0  0  0  0
   33.5620   39.1264   56.8747 C   0  0  0  0  0  0  0  0  0  0  0  0
   33.4495   37.8181   56.4384 C   0  0  0  0  0  0  0  0  0  0  0  0
   33.9296   37.3978   54.8239 Cl  0  0  0  0  0  0  0  0  0  0  0  0
   32.9552   36.8453   57.2874 C   0  0  0  0  0  0  0  0  0  0  0  0
   29.5586   35.4091   61.2155 H   0  0  0  0  0  0  0  0  0  0  0  0
   31.0906   34.5132   61.0782 H   0  0  0  0  0  0  0  0  0  0  0  0
   30.0326   37.7091   62.7322 H   0  0  0  0  0  0  0  0  0  0  0  0
   28.9846   36.3350   63.1577 H   0  0  0  0  0  0  0  0  0  0  0  0
   30.2136   36.0486   65.2874 H   0  0  0  0  0  0  0  0  0  0  0  0
   29.5506   37.6963   65.1593 H   0  0  0  0  0  0  0  0  0  0  0  0
   31.9180   37.7016   65.9570 H   0  0  0  0  0  0  0  0  0  0  0  0
   31.7400   38.5383   64.3948 H   0  0  0  0  0  0  0  0  0  0  0  0
   32.6698   35.6577   64.7984 H   0  0  0  0  0  0  0  0  0  0  0  0
   33.6966   37.0365   64.3338 H   0  0  0  0  0  0  0  0  0  0  0  0
   33.0383   35.6899   62.3507 H   0  0  0  0  0  0  0  0  0  0  0  0
   32.3698   37.3371   62.2668 H   0  0  0  0  0  0  0  0  0  0  0  0
   32.3717   35.2825   59.3558 H   0  0  0  0  0  0  0  0  0  0  0  0
   32.3783   38.7645   60.0127 H   0  0  0  0  0  0  0  0  0  0  0  0
   33.2696   40.4866   58.4979 H   0  0  0  0  0  0  0  0  0  0  0  0
   33.9490   39.8848   56.2102 H   0  0  0  0  0  0  0  0  0  0  0  0
   32.8680   35.8240   56.9471 H   0  0  0  0  0  0  0  0  0  0  0  0
  1  2  2  0  0  0  0
  2  3  1  0  0  0  0
  2 10  1  0  0  0  0
  3  4  1  0  0  0  0
  3 18  1  0  0  0  0
  3 19  1  0  0  0  0
  4  9  1  0  0  0  0
  4  5  1  0  0  0  0
  5  6  1  0  0  0  0
  5 20  1  0  0  0  0
  5 21  1  0  0  0  0
  6  7  1  0  0  0  0
  6 22  1  0  0  0  0
  6 23  1  0  0  0  0
  7  8  1  0  0  0  0
  7 24  1  0  0  0  0
  7 25  1  0  0  0  0
  8  9  1  0  0  0  0
  8 26  1  0  0  0  0
  8 27  1  0  0  0  0
  9 28  1  0  0  0  0
  9 29  1  0  0  0  0
 10 11  1  0  0  0  0
 10 30  1  0  0  0  0
 11 17  2  0  0  0  0
 11 12  1  0  0  0  0
 12 13  2  0  0  0  0
 12 31  1  0  0  0  0
 13 14  1  0  0  0  0
 13 32  1  0  0  0  0
 14 15  2  0  0  0  0
 14 33  1  0  0  0  0
 15 16  1  0  0  0  0
 15 17  1  0  0  0  0
 17 34  1  0  0  0  0
M  END
$$$$
