ZINC000000004935      none
 OpenBabel11202420153D

 31 33  0  0  1  0  0  0  0  0999 V2000
   32.6873   35.8824   65.1145 O   0  0  0  0  0  0  0  0  0  0  0  0
   32.2091   36.5426   64.2151 C   0  0  0  0  0  0  0  0  0  0  0  0
   32.7072   36.4236   62.7859 C   0  0  0  0  0  0  0  0  0  0  0  0
   31.4754   36.4741   61.8702 C   0  0  2  0  0  0  0  0  0  0  0  0
   30.8185   35.6346   62.0975 H   0  0  0  0  0  0  0  0  0  0  0  0
   31.9150   36.3935   60.4310 C   0  0  0  0  0  0  0  0  0  0  0  0
   32.1916   37.5506   59.7270 C   0  0  0  0  0  0  0  0  0  0  0  0
   32.5997   37.4764   58.4082 C   0  0  0  0  0  0  0  0  0  0  0  0
   32.7207   36.2457   57.7905 C   0  0  0  0  0  0  0  0  0  0  0  0
   32.4390   35.0890   58.4930 C   0  0  0  0  0  0  0  0  0  0  0  0
   32.0361   35.1628   59.8132 C   0  0  0  0  0  0  0  0  0  0  0  0
   30.7756   37.6993   62.0865 O   0  0  0  0  0  0  0  0  0  0  0  0
   30.4310   38.0360   63.3516 C   0  0  0  0  0  0  0  0  0  0  0  0
   29.3943   38.9259   63.5717 C   0  0  0  0  0  0  0  0  0  0  0  0
   29.0480   39.2889   64.8668 C   0  0  0  0  0  0  0  0  0  0  0  0
   28.0333   40.1663   65.0695 O   0  0  0  0  0  0  0  0  0  0  0  0
   29.7266   38.7585   65.9574 C   0  0  0  0  0  0  0  0  0  0  0  0
   30.7646   37.8656   65.7602 C   0  0  0  0  0  0  0  0  0  0  0  0
   31.4344   37.3515   66.8215 O   0  0  0  0  0  0  0  0  0  0  0  0
   31.1199   37.4960   64.4534 C   0  0  0  0  0  0  0  0  0  0  0  0
   33.3754   37.2533   62.5554 H   0  0  0  0  0  0  0  0  0  0  0  0
   33.2314   35.4772   62.6530 H   0  0  0  0  0  0  0  0  0  0  0  0
   32.0927   38.5122   60.2083 H   0  0  0  0  0  0  0  0  0  0  0  0
   32.8193   38.3801   57.8593 H   0  0  0  0  0  0  0  0  0  0  0  0
   33.0352   36.1880   56.7588 H   0  0  0  0  0  0  0  0  0  0  0  0
   32.5334   34.1275   58.0101 H   0  0  0  0  0  0  0  0  0  0  0  0
   31.8158   34.2591   60.3619 H   0  0  0  0  0  0  0  0  0  0  0  0
   28.8559   39.3430   62.7335 H   0  0  0  0  0  0  0  0  0  0  0  0
   27.8619   40.3610   66.0010 H   0  0  0  0  0  0  0  0  0  0  0  0
   29.4465   39.0474   66.9596 H   0  0  0  0  0  0  0  0  0  0  0  0
   32.1416   36.7377   66.5804 H   0  0  0  0  0  0  0  0  0  0  0  0
  1  2  2  0  0  0  0
  2 20  1  0  0  0  0
  2  3  1  0  0  0  0
  3  4  1  0  0  0  0
  3 21  1  0  0  0  0
  3 22  1  0  0  0  0
  4  5  1  1  0  0  0
  4  6  1  0  0  0  0
  4 12  1  0  0  0  0
  6 11  2  0  0  0  0
  6  7  1  0  0  0  0
  7  8  2  0  0  0  0
  7 23  1  0  0  0  0
  8  9  1  0  0  0  0
  8 24  1  0  0  0  0
  9 10  2  0  0  0  0
  9 25  1  0  0  0  0
 10 11  1  0  0  0  0
 10 26  1  0  0  0  0
 11 27  1  0  0  0  0
 12 13  1  0  0  0  0
 13 20  2  0  0  0  0
 13 14  1  0  0  0  0
 14 15  2  0  0  0  0
 14 28  1  0  0  0  0
 15 16  1  0  0  0  0
 15 17  1  0  0  0  0
 16 29  1  0  0  0  0
 17 18  2  0  0  0  0
 17 30  1  0  0  0  0
 18 19  1  0  0  0  0
 18 20  1  0  0  0  0
 19 31  1  0  0  0  0
M  END
$$$$
