ZINC000000001156      none
 OpenBabel11202420153D

 27 28  0  0  0  0  0  0  0  0999 V2000
   30.3072   35.8259   60.7828 O   0  0  0  0  0  0  0  0  0  0  0  0
   30.9185   36.8391   60.4991 C   0  0  0  0  0  0  0  0  0  0  0  0
   31.7740   36.8697   59.3111 C   0  0  0  0  0  0  0  0  0  0  0  0
   31.9611   38.0265   58.6448 C   0  0  0  0  0  0  0  0  0  0  0  0
   32.8211   38.0573   57.4503 C   0  0  0  0  0  0  0  0  0  0  0  0
   33.1050   36.8756   56.7584 C   0  0  0  0  0  0  0  0  0  0  0  0
   33.9112   36.9111   55.6403 C   0  0  0  0  0  0  0  0  0  0  0  0
   34.4396   38.1123   55.2009 C   0  0  0  0  0  0  0  0  0  0  0  0
   34.1631   39.2883   55.8803 C   0  0  0  0  0  0  0  0  0  0  0  0
   34.6827   40.4567   55.4444 F   0  0  0  0  0  0  0  0  0  0  0  0
   33.3531   39.2686   56.9990 C   0  0  0  0  0  0  0  0  0  0  0  0
   30.8125   37.9315   61.2814 N   0  0  0  0  0  0  0  0  0  0  0  0
   29.9614   37.8990   62.4734 C   0  0  0  0  0  0  0  0  0  0  0  0
   30.3065   38.8583   63.6142 C   0  0  0  0  0  0  0  0  0  0  0  0
   30.5765   37.3593   63.7661 C   0  0  0  0  0  0  0  0  0  0  0  0
   32.2549   35.9654   58.9685 H   0  0  0  0  0  0  0  0  0  0  0  0
   31.4803   38.9309   58.9873 H   0  0  0  0  0  0  0  0  0  0  0  0
   32.6939   35.9368   57.0993 H   0  0  0  0  0  0  0  0  0  0  0  0
   34.1307   35.9987   55.1057 H   0  0  0  0  0  0  0  0  0  0  0  0
   35.0701   38.1334   54.3245 H   0  0  0  0  0  0  0  0  0  0  0  0
   33.1343   40.1859   57.5256 H   0  0  0  0  0  0  0  0  0  0  0  0
   31.2998   38.7391   61.0552 H   0  0  0  0  0  0  0  0  0  0  0  0
   28.9069   37.6907   62.2926 H   0  0  0  0  0  0  0  0  0  0  0  0
   31.1669   39.5136   63.4779 H   0  0  0  0  0  0  0  0  0  0  0  0
   29.4792   39.2809   64.1842 H   0  0  0  0  0  0  0  0  0  0  0  0
   29.9266   36.7962   64.4359 H   0  0  0  0  0  0  0  0  0  0  0  0
   31.6144   37.0279   63.7296 H   0  0  0  0  0  0  0  0  0  0  0  0
  1  2  2  0  0  0  0
  2  3  1  0  0  0  0
  2 12  1  0  0  0  0
  3  4  2  0  0  0  0
  3 16  1  0  0  0  0
  4  5  1  0  0  0  0
  4 17  1  0  0  0  0
  5 11  2  0  0  0  0
  5  6  1  0  0  0  0
  6  7  2  0  0  0  0
  6 18  1  0  0  0  0
  7  8  1  0  0  0  0
  7 19  1  0  0  0  0
  8  9  2  0  0  0  0
  8 20  1  0  0  0  0
  9 10  1  0  0  0  0
  9 11  1  0  0  0  0
 11 21  1  0  0  0  0
 12 13  1  0  0  0  0
 12 22  1  0  0  0  0
 13 15  1  0  0  0  0
 13 14  1  0  0  0  0
 13 23  1  0  0  0  0
 14 15  1  0  0  0  0
 14 24  1  0  0  0  0
 14 25  1  0  0  0  0
 15 26  1  0  0  0  0
 15 27  1  0  0  0  0
M  END
$$$$
