ZINC000000039074      none
 OpenBabel11202420153D

 24 26  0  0  0  0  0  0  0  0999 V2000
   30.9694   37.1163   60.2562 O   0  0  0  0  0  0  0  0  0  0  0  0
   31.4995   38.0137   60.8765 C   0  0  0  0  0  0  0  0  0  0  0  0
   32.4734   38.7466   60.3013 N   0  0  0  0  0  0  0  0  0  0  0  0
   32.8732   38.4721   58.9886 C   0  0  0  0  0  0  0  0  0  0  0  0
   32.7846   37.1601   58.5056 C   0  0  0  0  0  0  0  0  0  0  0  0
   33.1540   36.8449   57.2420 C   0  0  0  0  0  0  0  0  0  0  0  0
   33.6545   37.8517   56.3775 C   0  0  0  0  0  0  0  0  0  0  0  0
   34.0755   37.7876   55.1245 N   0  0  0  0  0  0  0  0  0  0  0  0
   34.5201   39.2021   54.6548 S   0  0  0  0  0  0  0  0  0  0  0  0
   34.2368   40.0227   55.9454 N   0  0  0  0  0  0  0  0  0  0  0  0
   33.7532   39.2199   56.8800 C   0  0  0  0  0  0  0  0  0  0  0  0
   33.3447   39.4844   58.2106 C   0  0  0  0  0  0  0  0  0  0  0  0
   31.0648   38.3134   62.2878 C   0  0  0  0  0  0  0  0  0  0  0  0
   30.6305   37.1330   63.1591 C   0  0  0  0  0  0  0  0  0  0  0  0
   29.5861   38.1172   62.6285 C   0  0  0  0  0  0  0  0  0  0  0  0
   32.8973   39.4644   60.7973 H   0  0  0  0  0  0  0  0  0  0  0  0
   32.4089   36.3831   59.1548 H   0  0  0  0  0  0  0  0  0  0  0  0
   33.0719   35.8260   56.8936 H   0  0  0  0  0  0  0  0  0  0  0  0
   33.4071   40.4872   58.6067 H   0  0  0  0  0  0  0  0  0  0  0  0
   31.5891   39.1343   62.7771 H   0  0  0  0  0  0  0  0  0  0  0  0
   30.6593   36.1396   62.7113 H   0  0  0  0  0  0  0  0  0  0  0  0
   30.8694   37.1771   64.2216 H   0  0  0  0  0  0  0  0  0  0  0  0
   29.1378   38.8086   63.3420 H   0  0  0  0  0  0  0  0  0  0  0  0
   28.9276   37.7716   61.8315 H   0  0  0  0  0  0  0  0  0  0  0  0
  1  2  2  0  0  0  0
  2  3  1  0  0  0  0
  2 13  1  0  0  0  0
  3  4  1  0  0  0  0
  3 16  1  0  0  0  0
  4 12  2  0  0  0  0
  4  5  1  0  0  0  0
  5  6  2  0  0  0  0
  5 17  1  0  0  0  0
  6  7  1  0  0  0  0
  6 18  1  0  0  0  0
  7 11  1  0  0  0  0
  7  8  2  0  0  0  0
  8  9  1  0  0  0  0
  9 10  1  0  0  0  0
 10 11  2  0  0  0  0
 11 12  1  0  0  0  0
 12 19  1  0  0  0  0
 13 15  1  0  0  0  0
 13 14  1  0  0  0  0
 13 20  1  0  0  0  0
 14 15  1  0  0  0  0
 14 21  1  0  0  0  0
 14 22  1  0  0  0  0
 15 23  1  0  0  0  0
 15 24  1  0  0  0  0
M  END
$$$$
