ZINC000000031031      none
 OpenBabel11202420163D

 33 34  0  0  0  0  0  0  0  0999 V2000
   35.3274   39.2258   52.6177 C   0  0  0  0  0  0  0  0  0  0  0  0
   34.9012   39.8066   53.8518 O   0  0  0  0  0  0  0  0  0  0  0  0
   34.4603   38.9562   54.8131 C   0  0  0  0  0  0  0  0  0  0  0  0
   34.4446   37.5856   54.5717 C   0  0  0  0  0  0  0  0  0  0  0  0
   33.9977   36.7209   55.5294 C   0  0  0  0  0  0  0  0  0  0  0  0
   33.5629   37.2083   56.7662 C   0  0  0  0  0  0  0  0  0  0  0  0
   33.0860   36.2764   57.8018 C   0  0  0  0  0  0  0  0  0  0  0  0
   33.0696   35.0801   57.5825 O   0  0  0  0  0  0  0  0  0  0  0  0
   32.6676   36.7489   58.9926 N   0  0  0  0  0  0  0  0  0  0  0  0
   32.2160   35.8666   59.9731 C   0  0  0  0  0  0  0  0  0  0  0  0
   32.1404   34.4514   59.8774 C   0  0  0  0  0  0  0  0  0  0  0  0
   31.6445   34.0694   61.0761 C   0  0  0  0  0  0  0  0  0  0  0  0
   31.3581   32.6594   61.5242 C   0  0  0  0  0  0  0  0  0  0  0  0
   31.4573   35.1900   61.7883 O   0  0  0  0  0  0  0  0  0  0  0  0
   31.7826   36.1752   61.1673 N   0  0  0  0  0  0  0  0  0  0  0  0
   33.5824   38.5891   57.0158 C   0  0  0  0  0  0  0  0  0  0  0  0
   33.1623   39.0721   58.2119 O   0  0  0  0  0  0  0  0  0  0  0  0
   33.2113   40.4887   58.3929 C   0  0  0  0  0  0  0  0  0  0  0  0
   34.0325   39.4560   56.0342 C   0  0  0  0  0  0  0  0  0  0  0  0
   35.6544   40.0138   51.9391 H   0  0  0  0  0  0  0  0  0  0  0  0
   36.1546   38.5411   52.8047 H   0  0  0  0  0  0  0  0  0  0  0  0
   34.4983   38.6797   52.1677 H   0  0  0  0  0  0  0  0  0  0  0  0
   34.7839   37.2040   53.6201 H   0  0  0  0  0  0  0  0  0  0  0  0
   33.9842   35.6590   55.3334 H   0  0  0  0  0  0  0  0  0  0  0  0
   32.6806   37.7030   59.1675 H   0  0  0  0  0  0  0  0  0  0  0  0
   32.4155   33.8256   59.0412 H   0  0  0  0  0  0  0  0  0  0  0  0
   32.2444   32.2432   62.0031 H   0  0  0  0  0  0  0  0  0  0  0  0
   30.5304   32.6646   62.2334 H   0  0  0  0  0  0  0  0  0  0  0  0
   31.0923   32.0505   60.6600 H   0  0  0  0  0  0  0  0  0  0  0  0
   32.8486   40.7404   59.3895 H   0  0  0  0  0  0  0  0  0  0  0  0
   34.2394   40.8338   58.2826 H   0  0  0  0  0  0  0  0  0  0  0  0
   32.5833   40.9725   57.6449 H   0  0  0  0  0  0  0  0  0  0  0  0
   34.0501   40.5200   56.2190 H   0  0  0  0  0  0  0  0  0  0  0  0
  1  2  1  0  0  0  0
  1 20  1  0  0  0  0
  1 21  1  0  0  0  0
  1 22  1  0  0  0  0
  2  3  1  0  0  0  0
  3 19  2  0  0  0  0
  3  4  1  0  0  0  0
  4  5  2  0  0  0  0
  4 23  1  0  0  0  0
  5  6  1  0  0  0  0
  5 24  1  0  0  0  0
  6  7  1  0  0  0  0
  6 16  2  0  0  0  0
  7  8  2  0  0  0  0
  7  9  1  0  0  0  0
  9 10  1  0  0  0  0
  9 25  1  0  0  0  0
 10 15  2  0  0  0  0
 10 11  1  0  0  0  0
 11 12  2  0  0  0  0
 11 26  1  0  0  0  0
 12 13  1  0  0  0  0
 12 14  1  0  0  0  0
 13 27  1  0  0  0  0
 13 28  1  0  0  0  0
 13 29  1  0  0  0  0
 14 15  1  0  0  0  0
 16 17  1  0  0  0  0
 16 19  1  0  0  0  0
 17 18  1  0  0  0  0
 18 30  1  0  0  0  0
 18 31  1  0  0  0  0
 18 32  1  0  0  0  0
 19 33  1  0  0  0  0
M  END
$$$$
