ZINC000000036279      none
 OpenBabel11202420153D

 46 47  0  0  0  0  0  0  0  0999 V2000
   34.5919   32.1971   55.1056 C   0  0  0  0  0  0  0  0  0  0  0  0
   33.8698   32.7490   53.8747 C   0  0  0  0  0  0  0  0  0  0  0  0
   32.7549   33.6973   54.3201 C   0  0  0  0  0  0  0  0  0  0  0  0
   33.3492   34.8370   55.1069 C   0  0  0  0  0  0  0  0  0  0  0  0
   34.1675   35.5687   54.5906 O   0  0  0  0  0  0  0  0  0  0  0  0
   32.9381   35.0615   56.4977 C   0  0  0  0  0  0  0  0  0  0  0  0
   32.5449   33.9805   57.2970 C   0  0  0  0  0  0  0  0  0  0  0  0
   32.1630   34.1899   58.5910 C   0  0  0  0  0  0  0  0  0  0  0  0
   32.1622   35.4765   59.1227 C   0  0  0  0  0  0  0  0  0  0  0  0
   31.7720   35.6816   60.4413 N   0  0  0  0  0  0  0  0  0  0  0  0
   32.1734   34.5523   61.2908 C   0  0  0  0  0  0  0  0  0  0  0  0
   31.8898   34.8945   62.7572 C   0  0  0  0  0  0  0  0  0  0  0  0
   30.4796   35.2941   62.8794 N   0  0  0  0  0  0  0  0  0  0  0  0
   29.6782   34.7297   63.8044 C   0  0  0  0  0  0  0  0  0  0  0  0
   28.5155   35.0719   63.8912 O   0  0  0  0  0  0  0  0  0  0  0  0
   30.1659   33.7863   64.6321 O   0  0  0  0  0  0  0  0  0  0  0  0
   29.2458   33.2222   65.6034 C   0  0  0  0  0  0  0  0  0  0  0  0
   28.5509   32.0009   64.9980 C   0  0  0  0  0  0  0  0  0  0  0  0
   29.9672   36.3265   61.9656 C   0  0  0  0  0  0  0  0  0  0  0  0
   30.3266   35.9280   60.5303 C   0  0  0  0  0  0  0  0  0  0  0  0
   32.5525   36.5605   58.3361 C   0  0  0  0  0  0  0  0  0  0  0  0
   32.5514   37.8078   58.8552 F   0  0  0  0  0  0  0  0  0  0  0  0
   32.9436   36.3572   57.0315 C   0  0  0  0  0  0  0  0  0  0  0  0
   33.8822   31.6553   55.7307 H   0  0  0  0  0  0  0  0  0  0  0  0
   35.3863   31.5215   54.7883 H   0  0  0  0  0  0  0  0  0  0  0  0
   35.0219   33.0214   55.6745 H   0  0  0  0  0  0  0  0  0  0  0  0
   33.4400   31.9246   53.3057 H   0  0  0  0  0  0  0  0  0  0  0  0
   34.5794   33.2907   53.2495 H   0  0  0  0  0  0  0  0  0  0  0  0
   32.2403   34.0905   53.4433 H   0  0  0  0  0  0  0  0  0  0  0  0
   32.0451   33.1554   54.9454 H   0  0  0  0  0  0  0  0  0  0  0  0
   32.5434   32.9804   56.8891 H   0  0  0  0  0  0  0  0  0  0  0  0
   31.8607   33.3540   59.2046 H   0  0  0  0  0  0  0  0  0  0  0  0
   31.6068   33.6651   61.0081 H   0  0  0  0  0  0  0  0  0  0  0  0
   33.2386   34.3605   61.1615 H   0  0  0  0  0  0  0  0  0  0  0  0
   32.5320   35.7170   63.0722 H   0  0  0  0  0  0  0  0  0  0  0  0
   32.0778   34.0201   63.3802 H   0  0  0  0  0  0  0  0  0  0  0  0
   29.7973   32.9219   66.4944 H   0  0  0  0  0  0  0  0  0  0  0  0
   28.4990   33.9688   65.8727 H   0  0  0  0  0  0  0  0  0  0  0  0
   27.9994   32.3013   64.1070 H   0  0  0  0  0  0  0  0  0  0  0  0
   29.2978   31.2543   64.7285 H   0  0  0  0  0  0  0  0  0  0  0  0
   27.8601   31.5774   65.7270 H   0  0  0  0  0  0  0  0  0  0  0  0
   30.4247   37.2866   62.2045 H   0  0  0  0  0  0  0  0  0  0  0  0
   28.8842   36.3989   62.0652 H   0  0  0  0  0  0  0  0  0  0  0  0
   30.0525   36.7338   59.8495 H   0  0  0  0  0  0  0  0  0  0  0  0
   29.7857   35.0216   60.2577 H   0  0  0  0  0  0  0  0  0  0  0  0
   33.2502   37.1937   56.4209 H   0  0  0  0  0  0  0  0  0  0  0  0
  1  2  1  0  0  0  0
  1 24  1  0  0  0  0
  1 25  1  0  0  0  0
  1 26  1  0  0  0  0
  2  3  1  0  0  0  0
  2 27  1  0  0  0  0
  2 28  1  0  0  0  0
  3  4  1  0  0  0  0
  3 29  1  0  0  0  0
  3 30  1  0  0  0  0
  4  5  2  0  0  0  0
  4  6  1  0  0  0  0
  6 23  2  0  0  0  0
  6  7  1  0  0  0  0
  7  8  2  0  0  0  0
  7 31  1  0  0  0  0
  8  9  1  0  0  0  0
  8 32  1  0  0  0  0
  9 10  1  0  0  0  0
  9 21  2  0  0  0  0
 10 20  1  0  0  0  0
 10 11  1  0  0  0  0
 11 12  1  0  0  0  0
 11 33  1  0  0  0  0
 11 34  1  0  0  0  0
 12 13  1  0  0  0  0
 12 35  1  0  0  0  0
 12 36  1  0  0  0  0
 13 14  1  0  0  0  0
 13 19  1  0  0  0  0
 14 15  2  0  0  0  0
 14 16  1  0  0  0  0
 16 17  1  0  0  0  0
 17 18  1  0  0  0  0
 17 37  1  0  0  0  0
 17 38  1  0  0  0  0
 18 39  1  0  0  0  0
 18 40  1  0  0  0  0
 18 41  1  0  0  0  0
 19 20  1  0  0  0  0
 19 42  1  0  0  0  0
 19 43  1  0  0  0  0
 20 44  1  0  0  0  0
 20 45  1  0  0  0  0
 21 22  1  0  0  0  0
 21 23  1  0  0  0  0
 23 46  1  0  0  0  0
M  END
$$$$
