ZINC000000049559      none
 OpenBabel11202420153D

 39 42  0  0  0  0  0  0  0  0999 V2000
   31.8659   34.8752   58.3209 N   0  0  0  0  0  0  0  0  0  0  0  0
   31.6569   35.2804   59.3614 C   0  0  0  0  0  0  0  0  0  0  0  0
   31.3934   35.7910   60.6730 C   0  0  0  0  0  0  0  0  0  0  0  0
   30.6422   36.9561   60.8336 C   0  0  0  0  0  0  0  0  0  0  0  0
   30.3888   37.4458   62.0966 C   0  0  0  0  0  0  0  0  0  0  0  0
   30.8791   36.7849   63.2194 C   0  0  0  0  0  0  0  0  0  0  0  0
   30.6161   37.2911   64.4937 N   0  0  0  0  0  0  0  0  0  0  0  0
   31.5057   38.2068   65.0564 N   0  0  0  0  0  0  0  0  0  0  0  0
   31.3250   38.7236   66.2453 C   0  0  0  0  0  0  0  0  0  0  0  0
   32.3044   39.6923   66.7906 C   0  0  0  0  0  0  0  0  0  0  0  0
   33.3893   39.2428   67.5428 C   0  0  0  0  0  0  0  0  0  0  0  0
   34.3009   40.1494   68.0439 C   0  0  0  0  0  0  0  0  0  0  0  0
   34.1345   41.5028   67.8101 C   0  0  0  0  0  0  0  0  0  0  0  0
   33.0574   41.9552   67.0691 C   0  0  0  0  0  0  0  0  0  0  0  0
   32.1420   41.0578   66.5587 C   0  0  0  0  0  0  0  0  0  0  0  0
   30.1477   38.3408   67.0380 C   0  0  0  0  0  0  0  0  0  0  0  0
   29.9148   38.8659   68.3080 C   0  0  0  0  0  0  0  0  0  0  0  0
   28.7959   38.4760   69.0107 C   0  0  0  0  0  0  0  0  0  0  0  0
   27.8988   37.5652   68.4680 C   0  0  0  0  0  0  0  0  0  0  0  0
   28.1088   37.0334   67.2149 C   0  0  0  0  0  0  0  0  0  0  0  0
   29.2348   37.4149   66.4862 C   0  0  0  0  0  0  0  0  0  0  0  0
   29.5063   36.8851   65.1439 C   0  0  0  0  0  0  0  0  0  0  0  0
   28.7435   36.0886   64.6273 O   0  0  0  0  0  0  0  0  0  0  0  0
   31.6291   35.6251   63.0776 C   0  0  0  0  0  0  0  0  0  0  0  0
   31.8868   35.1159   61.8080 C   0  0  0  0  0  0  0  0  0  0  0  0
   32.6541   33.9166   61.6552 C   0  0  0  0  0  0  0  0  0  0  0  0
   33.2629   32.9651   61.5342 N   0  0  0  0  0  0  0  0  0  0  0  0
   30.2587   37.4744   59.9671 H   0  0  0  0  0  0  0  0  0  0  0  0
   29.8066   38.3476   62.2158 H   0  0  0  0  0  0  0  0  0  0  0  0
   33.5176   38.1868   67.7296 H   0  0  0  0  0  0  0  0  0  0  0  0
   35.1435   39.8022   68.6233 H   0  0  0  0  0  0  0  0  0  0  0  0
   34.8483   42.2089   68.2079 H   0  0  0  0  0  0  0  0  0  0  0  0
   32.9326   43.0129   66.8903 H   0  0  0  0  0  0  0  0  0  0  0  0
   31.3014   41.4122   65.9803 H   0  0  0  0  0  0  0  0  0  0  0  0
   30.6073   39.5742   68.7384 H   0  0  0  0  0  0  0  0  0  0  0  0
   28.6146   38.8827   69.9947 H   0  0  0  0  0  0  0  0  0  0  0  0
   27.0273   37.2712   69.0342 H   0  0  0  0  0  0  0  0  0  0  0  0
   27.4062   36.3262   66.7994 H   0  0  0  0  0  0  0  0  0  0  0  0
   32.0078   35.1159   63.9515 H   0  0  0  0  0  0  0  0  0  0  0  0
  1  2  3  0  0  0  0
  2  3  1  0  0  0  0
  3 25  2  0  0  0  0
  3  4  1  0  0  0  0
  4  5  2  0  0  0  0
  4 28  1  0  0  0  0
  5  6  1  0  0  0  0
  5 29  1  0  0  0  0
  6  7  1  0  0  0  0
  6 24  2  0  0  0  0
  7 22  1  0  0  0  0
  7  8  1  0  0  0  0
  8  9  2  0  0  0  0
  9 10  1  0  0  0  0
  9 16  1  0  0  0  0
 10 15  2  0  0  0  0
 10 11  1  0  0  0  0
 11 12  2  0  0  0  0
 11 30  1  0  0  0  0
 12 13  1  0  0  0  0
 12 31  1  0  0  0  0
 13 14  2  0  0  0  0
 13 32  1  0  0  0  0
 14 15  1  0  0  0  0
 14 33  1  0  0  0  0
 15 34  1  0  0  0  0
 16 21  2  0  0  0  0
 16 17  1  0  0  0  0
 17 18  2  0  0  0  0
 17 35  1  0  0  0  0
 18 19  1  0  0  0  0
 18 36  1  0  0  0  0
 19 20  2  0  0  0  0
 19 37  1  0  0  0  0
 20 21  1  0  0  0  0
 20 38  1  0  0  0  0
 21 22  1  0  0  0  0
 22 23  2  0  0  0  0
 24 25  1  0  0  0  0
 24 39  1  0  0  0  0
 25 26  1  0  0  0  0
 26 27  3  0  0  0  0
M  END
$$$$
