ZINC000000042416      none
 OpenBabel11202420153D

 36 38  0  0  0  0  0  0  0  0999 V2000
   31.1901   32.6159   62.3984 C   0  0  0  0  0  0  0  0  0  0  0  0
   30.9253   34.0658   62.0841 C   0  0  0  0  0  0  0  0  0  0  0  0
   30.1740   34.7107   62.7843 O   0  0  0  0  0  0  0  0  0  0  0  0
   31.5233   34.6457   61.0247 N   0  0  0  0  0  0  0  0  0  0  0  0
   31.2782   35.9873   60.7336 C   0  0  0  0  0  0  0  0  0  0  0  0
   30.4952   36.7833   61.4064 N   0  0  0  0  0  0  0  0  0  0  0  0
   30.5266   38.0544   60.7819 O   0  0  0  0  0  0  0  0  0  0  0  0
   31.4024   37.9652   59.6719 N   0  0  0  0  0  0  0  0  0  0  0  0
   31.8576   36.7437   59.6190 C   0  0  0  0  0  0  0  0  0  0  0  0
   32.7453   36.2456   58.6708 N   0  0  0  0  0  0  0  0  0  0  0  0
   33.2264   37.0771   57.6631 C   0  0  0  0  0  0  0  0  0  0  0  0
   33.4197   38.4223   57.7518 C   0  0  0  0  0  0  0  0  0  0  0  0
   33.9065   38.8679   56.5198 C   0  0  0  0  0  0  0  0  0  0  0  0
   34.2522   40.2931   56.1729 C   0  0  0  0  0  0  0  0  0  0  0  0
   34.0107   37.8388   55.7179 N   0  0  0  0  0  0  0  0  0  0  0  0
   33.5934   36.6944   56.4094 N   0  0  0  0  0  0  0  0  0  0  0  0
   33.5549   35.3895   55.8997 C   0  0  0  0  0  0  0  0  0  0  0  0
   34.4658   34.9945   54.9290 C   0  0  0  0  0  0  0  0  0  0  0  0
   34.4256   33.7078   54.4290 C   0  0  0  0  0  0  0  0  0  0  0  0
   33.4795   32.8132   54.8933 C   0  0  0  0  0  0  0  0  0  0  0  0
   32.5708   33.2033   55.8606 C   0  0  0  0  0  0  0  0  0  0  0  0
   32.6059   34.4887   56.3646 C   0  0  0  0  0  0  0  0  0  0  0  0
   32.0448   32.5402   63.0705 H   0  0  0  0  0  0  0  0  0  0  0  0
   30.3121   32.1816   62.8766 H   0  0  0  0  0  0  0  0  0  0  0  0
   31.4049   32.0773   61.4755 H   0  0  0  0  0  0  0  0  0  0  0  0
   32.1243   34.1299   60.4646 H   0  0  0  0  0  0  0  0  0  0  0  0
   33.0291   35.3189   58.7118 H   0  0  0  0  0  0  0  0  0  0  0  0
   33.2266   39.0366   58.6190 H   0  0  0  0  0  0  0  0  0  0  0  0
   33.3726   40.7913   55.7650 H   0  0  0  0  0  0  0  0  0  0  0  0
   34.5822   40.8157   57.0707 H   0  0  0  0  0  0  0  0  0  0  0  0
   35.0516   40.3029   55.4321 H   0  0  0  0  0  0  0  0  0  0  0  0
   35.2052   35.6929   54.5657 H   0  0  0  0  0  0  0  0  0  0  0  0
   35.1341   33.3999   53.6743 H   0  0  0  0  0  0  0  0  0  0  0  0
   33.4470   31.8087   54.4982 H   0  0  0  0  0  0  0  0  0  0  0  0
   31.8326   32.5023   56.2216 H   0  0  0  0  0  0  0  0  0  0  0  0
   31.8963   34.7929   57.1198 H   0  0  0  0  0  0  0  0  0  0  0  0
  1  2  1  0  0  0  0
  1 23  1  0  0  0  0
  1 24  1  0  0  0  0
  1 25  1  0  0  0  0
  2  3  2  0  0  0  0
  2  4  1  0  0  0  0
  4  5  1  0  0  0  0
  4 26  1  0  0  0  0
  5  9  1  0  0  0  0
  5  6  2  0  0  0  0
  6  7  1  0  0  0  0
  7  8  1  0  0  0  0
  8  9  2  0  0  0  0
  9 10  1  0  0  0  0
 10 11  1  0  0  0  0
 10 27  1  0  0  0  0
 11 16  1  0  0  0  0
 11 12  2  0  0  0  0
 12 13  1  0  0  0  0
 12 28  1  0  0  0  0
 13 14  1  0  0  0  0
 13 15  2  0  0  0  0
 14 29  1  0  0  0  0
 14 30  1  0  0  0  0
 14 31  1  0  0  0  0
 15 16  1  0  0  0  0
 16 17  1  0  0  0  0
 17 22  2  0  0  0  0
 17 18  1  0  0  0  0
 18 19  2  0  0  0  0
 18 32  1  0  0  0  0
 19 20  1  0  0  0  0
 19 33  1  0  0  0  0
 20 21  2  0  0  0  0
 20 34  1  0  0  0  0
 21 22  1  0  0  0  0
 21 35  1  0  0  0  0
 22 36  1  0  0  0  0
M  END
$$$$
