ZINC000000004689      none
 OpenBabel11202420153D

 33 34  0  0  1  0  0  0  0  0999 V2000
   32.8264   36.0680   62.6818 C   0  0  0  0  0  0  0  0  0  0  0  0
   31.4164   36.6133   62.9174 C   0  0  1  0  0  0  0  0  0  0  0  0
   30.7076   35.7856   62.9418 H   0  0  0  0  0  0  0  0  0  0  0  0
   31.3753   37.3583   64.2533 C   0  0  0  0  0  0  0  0  0  0  0  0
   30.0969   38.1549   64.3378 C   0  0  0  0  0  0  0  0  0  0  0  0
   29.5269   38.2827   65.4011 O   0  0  0  0  0  0  0  0  0  0  0  0
   29.5917   38.7230   63.2263 N   0  0  0  0  0  0  0  0  0  0  0  0
   30.1928   38.5082   61.9831 N   0  0  0  0  0  0  0  0  0  0  0  0
   31.0481   37.5562   61.8006 C   0  0  0  0  0  0  0  0  0  0  0  0
   31.6744   37.3897   60.4771 C   0  0  0  0  0  0  0  0  0  0  0  0
   32.4293   38.4281   59.9237 C   0  0  0  0  0  0  0  0  0  0  0  0
   33.0181   38.2670   58.6893 C   0  0  0  0  0  0  0  0  0  0  0  0
   32.8527   37.0764   57.9877 C   0  0  0  0  0  0  0  0  0  0  0  0
   33.4445   36.9192   56.7366 N   0  0  0  0  0  0  0  0  0  0  0  0
   33.2921   35.8163   56.0851 N   0  0  0  0  0  0  0  0  0  0  0  0
   33.8513   35.6677   54.9029 C   0  0  0  0  0  0  0  0  0  0  0  0
   34.6288   36.7304   54.3398 C   0  0  0  0  0  0  0  0  0  0  0  0
   35.2455   37.5734   53.8932 N   0  0  0  0  0  0  0  0  0  0  0  0
   33.6823   34.4434   54.1796 C   0  0  0  0  0  0  0  0  0  0  0  0
   33.5482   33.4722   53.6059 N   0  0  0  0  0  0  0  0  0  0  0  0
   32.0970   36.0427   58.5333 C   0  0  0  0  0  0  0  0  0  0  0  0
   31.5104   36.1951   59.7697 C   0  0  0  0  0  0  0  0  0  0  0  0
   33.1492   35.5051   63.5576 H   0  0  0  0  0  0  0  0  0  0  0  0
   32.8218   35.4131   61.8104 H   0  0  0  0  0  0  0  0  0  0  0  0
   33.5126   36.8971   62.5096 H   0  0  0  0  0  0  0  0  0  0  0  0
   32.2295   38.0321   64.3211 H   0  0  0  0  0  0  0  0  0  0  0  0
   31.4119   36.6400   65.0723 H   0  0  0  0  0  0  0  0  0  0  0  0
   28.8041   39.2856   63.2890 H   0  0  0  0  0  0  0  0  0  0  0  0
   32.5544   39.3539   60.4656 H   0  0  0  0  0  0  0  0  0  0  0  0
   33.6054   39.0670   58.2633 H   0  0  0  0  0  0  0  0  0  0  0  0
   33.9713   37.6390   56.3552 H   0  0  0  0  0  0  0  0  0  0  0  0
   31.9704   35.1203   57.9862 H   0  0  0  0  0  0  0  0  0  0  0  0
   30.9238   35.3927   60.1923 H   0  0  0  0  0  0  0  0  0  0  0  0
  1  2  1  0  0  0  0
  1 23  1  0  0  0  0
  1 24  1  0  0  0  0
  1 25  1  0  0  0  0
  2  3  1  1  0  0  0
  2  9  1  0  0  0  0
  2  4  1  0  0  0  0
  4  5  1  0  0  0  0
  4 26  1  0  0  0  0
  4 27  1  0  0  0  0
  5  6  2  0  0  0  0
  5  7  1  0  0  0  0
  7  8  1  0  0  0  0
  7 28  1  0  0  0  0
  8  9  2  0  0  0  0
  9 10  1  0  0  0  0
 10 22  2  0  0  0  0
 10 11  1  0  0  0  0
 11 12  2  0  0  0  0
 11 29  1  0  0  0  0
 12 13  1  0  0  0  0
 12 30  1  0  0  0  0
 13 14  1  0  0  0  0
 13 21  2  0  0  0  0
 14 15  1  0  0  0  0
 14 31  1  0  0  0  0
 15 16  2  0  0  0  0
 16 17  1  0  0  0  0
 16 19  1  0  0  0  0
 17 18  3  0  0  0  0
 19 20  3  0  0  0  0
 21 22  1  0  0  0  0
 21 32  1  0  0  0  0
 22 33  1  0  0  0  0
M  END
$$$$
