ZINC000000003868      none
 OpenBabel11202420153D

 22 22  0  0  0  0  0  0  0  0999 V2000
   33.0960   39.4493   57.6637 C   0  0  0  0  0  0  0  0  0  0  0  0
   32.7150   38.3782   58.5294 O   0  0  0  0  0  0  0  0  0  0  0  0
   32.7745   37.1221   58.0185 C   0  0  0  0  0  0  0  0  0  0  0  0
   33.1735   36.9415   56.7698 N   0  0  0  0  0  0  0  0  0  0  0  0
   33.2478   35.7386   56.2301 C   0  0  0  0  0  0  0  0  0  0  0  0
   33.7150   35.5908   54.8050 C   0  0  0  0  0  0  0  0  0  0  0  0
   34.0903   37.2173   54.1237 Cl  0  0  0  0  0  0  0  0  0  0  0  0
   35.1968   34.5646   54.7618 Cl  0  0  0  0  0  0  0  0  0  0  0  0
   32.4169   34.8134   53.8245 Cl  0  0  0  0  0  0  0  0  0  0  0  0
   32.9087   34.6149   56.9551 C   0  0  0  0  0  0  0  0  0  0  0  0
   33.0116   33.0395   56.2329 Cl  0  0  0  0  0  0  0  0  0  0  0  0
   32.4829   34.7596   58.2750 C   0  0  0  0  0  0  0  0  0  0  0  0
   32.1407   33.6759   59.0185 O   0  0  0  0  0  0  0  0  0  0  0  0
   30.7732   33.2640   58.9736 C   0  0  0  0  0  0  0  0  0  0  0  0
   32.4168   36.0411   58.8111 C   0  0  0  0  0  0  0  0  0  0  0  0
   31.8946   36.2846   60.4487 Cl  0  0  0  0  0  0  0  0  0  0  0  0
   34.1298   39.3105   57.3473 H   0  0  0  0  0  0  0  0  0  0  0  0
   32.4463   39.4580   56.7886 H   0  0  0  0  0  0  0  0  0  0  0  0
   33.0027   40.3966   58.1949 H   0  0  0  0  0  0  0  0  0  0  0  0
   30.1375   34.0753   59.3286 H   0  0  0  0  0  0  0  0  0  0  0  0
   30.5028   33.0127   57.9480 H   0  0  0  0  0  0  0  0  0  0  0  0
   30.6359   32.3898   59.6100 H   0  0  0  0  0  0  0  0  0  0  0  0
  1  2  1  0  0  0  0
  1 17  1  0  0  0  0
  1 18  1  0  0  0  0
  1 19  1  0  0  0  0
  2  3  1  0  0  0  0
  3 15  2  0  0  0  0
  3  4  1  0  0  0  0
  4  5  2  0  0  0  0
  5  6  1  0  0  0  0
  5 10  1  0  0  0  0
  6  7  1  0  0  0  0
  6  8  1  0  0  0  0
  6  9  1  0  0  0  0
 10 11  1  0  0  0  0
 10 12  2  0  0  0  0
 12 13  1  0  0  0  0
 12 15  1  0  0  0  0
 13 14  1  0  0  0  0
 14 20  1  0  0  0  0
 14 21  1  0  0  0  0
 14 22  1  0  0  0  0
 15 16  1  0  0  0  0
M  END
$$$$
