ZINC000000029892      none
 OpenBabel11202420163D

 26 27  0  0  0  0  0  0  0  0999 V2000
   32.1072   34.8719   58.8478 O   0  0  0  0  0  0  0  0  0  0  0  0
   32.6808   35.3377   57.8825 C   0  0  0  0  0  0  0  0  0  0  0  0
   33.3552   34.4415   56.9202 C   0  0  0  0  0  0  0  0  0  0  0  0
   34.3846   33.6010   57.3483 C   0  0  0  0  0  0  0  0  0  0  0  0
   35.0142   32.7705   56.4453 C   0  0  0  0  0  0  0  0  0  0  0  0
   34.6244   32.7654   55.1162 C   0  0  0  0  0  0  0  0  0  0  0  0
   35.4217   31.7170   53.9854 Cl  0  0  0  0  0  0  0  0  0  0  0  0
   33.5999   33.5937   54.6858 C   0  0  0  0  0  0  0  0  0  0  0  0
   33.1179   33.5808   53.0181 Cl  0  0  0  0  0  0  0  0  0  0  0  0
   32.9620   34.4285   55.5810 C   0  0  0  0  0  0  0  0  0  0  0  0
   32.7015   36.6715   57.6898 N   0  0  0  0  0  0  0  0  0  0  0  0
   33.3605   37.3658   56.5740 C   0  0  0  0  0  0  0  0  0  0  0  0
   33.1412   38.8791   56.7822 C   0  0  0  0  0  0  0  0  0  0  0  0
   32.8648   38.9816   58.3055 C   0  0  0  0  0  0  0  0  0  0  0  0
   32.0727   37.6762   58.5665 C   0  0  0  0  0  0  0  0  0  0  0  0
   34.6898   33.6037   58.3843 H   0  0  0  0  0  0  0  0  0  0  0  0
   35.8131   32.1229   56.7750 H   0  0  0  0  0  0  0  0  0  0  0  0
   32.1635   35.0735   55.2450 H   0  0  0  0  0  0  0  0  0  0  0  0
   34.4269   37.1403   56.5749 H   0  0  0  0  0  0  0  0  0  0  0  0
   32.9147   37.0553   55.6290 H   0  0  0  0  0  0  0  0  0  0  0  0
   32.2825   39.2304   56.2100 H   0  0  0  0  0  0  0  0  0  0  0  0
   34.0386   39.4369   56.5147 H   0  0  0  0  0  0  0  0  0  0  0  0
   32.2593   39.8585   58.5346 H   0  0  0  0  0  0  0  0  0  0  0  0
   33.7962   38.9932   58.8717 H   0  0  0  0  0  0  0  0  0  0  0  0
   31.0241   37.8091   58.2999 H   0  0  0  0  0  0  0  0  0  0  0  0
   32.1630   37.3780   59.6109 H   0  0  0  0  0  0  0  0  0  0  0  0
  1  2  2  0  0  0  0
  2  3  1  0  0  0  0
  2 11  1  0  0  0  0
  3 10  2  0  0  0  0
  3  4  1  0  0  0  0
  4  5  2  0  0  0  0
  4 16  1  0  0  0  0
  5  6  1  0  0  0  0
  5 17  1  0  0  0  0
  6  7  1  0  0  0  0
  6  8  2  0  0  0  0
  8  9  1  0  0  0  0
  8 10  1  0  0  0  0
 10 18  1  0  0  0  0
 11 15  1  0  0  0  0
 11 12  1  0  0  0  0
 12 13  1  0  0  0  0
 12 19  1  0  0  0  0
 12 20  1  0  0  0  0
 13 14  1  0  0  0  0
 13 21  1  0  0  0  0
 13 22  1  0  0  0  0
 14 15  1  0  0  0  0
 14 23  1  0  0  0  0
 14 24  1  0  0  0  0
 15 25  1  0  0  0  0
 15 26  1  0  0  0  0
M  END
$$$$
