ZINC000000005148      none
 OpenBabel11202420153D

 44 46  0  0  1  0  0  0  0  0999 V2000
   32.5175   37.4673   59.6211 C   0  0  0  0  0  0  0  0  0  0  0  0
   32.0389   37.3351   61.0439 C   0  0  0  0  0  0  0  0  0  0  0  0
   32.3647   36.2121   61.7812 C   0  0  0  0  0  0  0  0  0  0  0  0
   31.9289   36.0926   63.0877 C   0  0  0  0  0  0  0  0  0  0  0  0
   31.1601   37.0923   63.6539 C   0  0  0  0  0  0  0  0  0  0  0  0
   30.6001   36.9374   65.3174 S   0  0  0  0  0  0  0  0  0  0  0  0
   29.2401   37.3493   65.3230 O   0  0  0  0  0  0  0  0  0  0  0  0
   31.0268   35.6587   65.7670 O   0  0  0  0  0  0  0  0  0  0  0  0
   31.4298   38.0511   66.2196 N   0  0  0  0  0  0  0  0  0  0  0  0
   32.8904   38.1106   66.3757 C   0  0  0  0  0  0  0  0  0  0  0  0
   33.2025   39.2900   67.3209 C   0  0  0  0  0  0  0  0  0  0  0  0
   31.8704   39.4775   68.0939 C   0  0  0  0  0  0  0  0  0  0  0  0
   30.8262   39.1508   66.9941 C   0  0  2  0  0  0  0  0  0  0  0  0
   30.6605   40.0183   66.3554 H   0  0  0  0  0  0  0  0  0  0  0  0
   29.5301   38.7026   67.6188 C   0  0  0  0  0  0  0  0  0  0  0  0
   29.5151   37.7466   68.3648 O   0  0  0  0  0  0  0  0  0  0  0  0
   28.3875   39.3644   67.3483 N   0  0  0  0  0  0  0  0  0  0  0  0
   28.2639   40.5378   66.4712 C   0  0  0  0  0  0  0  0  0  0  0  0
   26.7813   40.9653   66.4839 C   0  0  0  0  0  0  0  0  0  0  0  0
   26.2591   40.3619   67.8146 C   0  0  0  0  0  0  0  0  0  0  0  0
   27.0557   39.0353   67.8881 C   0  0  0  0  0  0  0  0  0  0  0  0
   30.8304   38.2131   62.9152 C   0  0  0  0  0  0  0  0  0  0  0  0
   31.2694   38.3343   61.6099 C   0  0  0  0  0  0  0  0  0  0  0  0
   33.4853   37.9686   59.6084 H   0  0  0  0  0  0  0  0  0  0  0  0
   31.7978   38.0524   59.0485 H   0  0  0  0  0  0  0  0  0  0  0  0
   32.6157   36.4766   59.1772 H   0  0  0  0  0  0  0  0  0  0  0  0
   32.9622   35.4294   61.3376 H   0  0  0  0  0  0  0  0  0  0  0  0
   32.1863   35.2168   63.6647 H   0  0  0  0  0  0  0  0  0  0  0  0
   33.2551   37.1802   66.8109 H   0  0  0  0  0  0  0  0  0  0  0  0
   33.3604   38.2755   65.4060 H   0  0  0  0  0  0  0  0  0  0  0  0
   34.0119   39.0329   68.0040 H   0  0  0  0  0  0  0  0  0  0  0  0
   33.4504   40.1856   66.7513 H   0  0  0  0  0  0  0  0  0  0  0  0
   31.7992   38.7766   68.9256 H   0  0  0  0  0  0  0  0  0  0  0  0
   31.7615   40.5050   68.4414 H   0  0  0  0  0  0  0  0  0  0  0  0
   28.8887   41.3484   66.8463 H   0  0  0  0  0  0  0  0  0  0  0  0
   28.5634   40.2753   65.4566 H   0  0  0  0  0  0  0  0  0  0  0  0
   26.2469   40.5428   65.6330 H   0  0  0  0  0  0  0  0  0  0  0  0
   26.6928   42.0517   66.4921 H   0  0  0  0  0  0  0  0  0  0  0  0
   25.1871   40.1715   67.7632 H   0  0  0  0  0  0  0  0  0  0  0  0
   26.4990   41.0090   68.6583 H   0  0  0  0  0  0  0  0  0  0  0  0
   26.5767   38.2708   67.2764 H   0  0  0  0  0  0  0  0  0  0  0  0
   27.1379   38.6972   68.9211 H   0  0  0  0  0  0  0  0  0  0  0  0
   30.2294   38.9939   63.3575 H   0  0  0  0  0  0  0  0  0  0  0  0
   31.0114   39.2098   61.0326 H   0  0  0  0  0  0  0  0  0  0  0  0
  1  2  1  0  0  0  0
  1 24  1  0  0  0  0
  1 25  1  0  0  0  0
  1 26  1  0  0  0  0
  2 23  2  0  0  0  0
  2  3  1  0  0  0  0
  3  4  2  0  0  0  0
  3 27  1  0  0  0  0
  4  5  1  0  0  0  0
  4 28  1  0  0  0  0
  5  6  1  0  0  0  0
  5 22  2  0  0  0  0
  6  7  2  0  0  0  0
  6  8  2  0  0  0  0
  6  9  1  0  0  0  0
  9 13  1  0  0  0  0
  9 10  1  0  0  0  0
 10 11  1  0  0  0  0
 10 29  1  0  0  0  0
 10 30  1  0  0  0  0
 11 12  1  0  0  0  0
 11 31  1  0  0  0  0
 11 32  1  0  0  0  0
 12 13  1  0  0  0  0
 12 33  1  0  0  0  0
 12 34  1  0  0  0  0
 13 14  1  6  0  0  0
 13 15  1  0  0  0  0
 15 16  2  0  0  0  0
 15 17  1  0  0  0  0
 17 21  1  0  0  0  0
 17 18  1  0  0  0  0
 18 19  1  0  0  0  0
 18 35  1  0  0  0  0
 18 36  1  0  0  0  0
 19 20  1  0  0  0  0
 19 37  1  0  0  0  0
 19 38  1  0  0  0  0
 20 21  1  0  0  0  0
 20 39  1  0  0  0  0
 20 40  1  0  0  0  0
 21 41  1  0  0  0  0
 21 42  1  0  0  0  0
 22 23  1  0  0  0  0
 22 43  1  0  0  0  0
 23 44  1  0  0  0  0
M  END
$$$$
