ZINC000000055285      none
 OpenBabel11202420153D

 43 46  0  0  0  0  0  0  0  0999 V2000
   33.6024   40.2229   58.3074 C   0  0  0  0  0  0  0  0  0  0  0  0
   33.5375   38.8202   57.8760 N   0  0  0  0  0  0  0  0  0  0  0  0
   33.1116   38.7197   56.4707 C   0  0  0  0  0  0  0  0  0  0  0  0
   33.4048   37.2956   55.9863 C   0  0  0  0  0  0  0  0  0  0  0  0
   32.8434   36.2963   56.9611 C   0  0  0  0  0  0  0  0  0  0  0  0
   32.4987   36.6352   58.2282 C   0  0  0  0  0  0  0  0  0  0  0  0
   31.9973   35.6557   59.1070 C   0  0  0  0  0  0  0  0  0  0  0  0
   31.6672   36.0309   60.4002 N   0  0  0  0  0  0  0  0  0  0  0  0
   31.1377   35.0381   61.3384 C   0  0  0  0  0  0  0  0  0  0  0  0
   31.5353   35.4123   62.7431 C   0  0  0  0  0  0  0  0  0  0  0  0
   30.7187   35.0737   63.8058 C   0  0  0  0  0  0  0  0  0  0  0  0
   31.0857   35.4127   65.0948 C   0  0  0  0  0  0  0  0  0  0  0  0
   32.2642   36.0993   65.3199 C   0  0  0  0  0  0  0  0  0  0  0  0
   33.0782   36.4424   64.2566 C   0  0  0  0  0  0  0  0  0  0  0  0
   32.7137   36.0989   62.9681 C   0  0  0  0  0  0  0  0  0  0  0  0
   31.8242   34.4029   58.7525 N   0  0  0  0  0  0  0  0  0  0  0  0
   32.1283   33.9856   57.5113 C   0  0  0  0  0  0  0  0  0  0  0  0
   32.0618   32.8276   56.8838 N   0  0  0  0  0  0  0  0  0  0  0  0
   32.5228   32.9849   55.5723 N   0  0  0  0  0  0  0  0  0  0  0  0
   32.5717   32.2771   54.9107 H   0  0  0  0  0  0  0  0  0  0  0  0
   32.8871   34.2613   55.3644 C   0  0  0  0  0  0  0  0  0  0  0  0
   33.3900   34.7873   54.1872 N   0  0  0  0  0  0  0  0  0  0  0  0
   32.6658   34.9586   56.5493 C   0  0  0  0  0  0  0  0  0  0  0  0
   32.6361   38.0475   58.7356 C   0  0  0  0  0  0  0  0  0  0  0  0
   33.9700   40.2712   59.3325 H   0  0  0  0  0  0  0  0  0  0  0  0
   34.2780   40.7734   57.6529 H   0  0  0  0  0  0  0  0  0  0  0  0
   32.6073   40.6649   58.2572 H   0  0  0  0  0  0  0  0  0  0  0  0
   32.0446   38.9289   56.3945 H   0  0  0  0  0  0  0  0  0  0  0  0
   33.6701   39.4339   55.8658 H   0  0  0  0  0  0  0  0  0  0  0  0
   34.4808   37.1472   55.8959 H   0  0  0  0  0  0  0  0  0  0  0  0
   32.9384   37.1513   55.0117 H   0  0  0  0  0  0  0  0  0  0  0  0
   31.7868   36.9508   60.6838 H   0  0  0  0  0  0  0  0  0  0  0  0
   30.0506   35.0110   61.2635 H   0  0  0  0  0  0  0  0  0  0  0  0
   31.5432   34.0559   61.0953 H   0  0  0  0  0  0  0  0  0  0  0  0
   29.7957   34.5413   63.6295 H   0  0  0  0  0  0  0  0  0  0  0  0
   30.4496   35.1449   65.9254 H   0  0  0  0  0  0  0  0  0  0  0  0
   32.5488   36.3681   66.3265 H   0  0  0  0  0  0  0  0  0  0  0  0
   33.9987   36.9791   64.4324 H   0  0  0  0  0  0  0  0  0  0  0  0
   33.3495   36.3673   62.1374 H   0  0  0  0  0  0  0  0  0  0  0  0
   33.6245   35.7272   54.1372 H   0  0  0  0  0  0  0  0  0  0  0  0
   33.5081   34.2161   53.4121 H   0  0  0  0  0  0  0  0  0  0  0  0
   31.6549   38.5223   58.7462 H   0  0  0  0  0  0  0  0  0  0  0  0
   33.0363   38.0275   59.7492 H   0  0  0  0  0  0  0  0  0  0  0  0
  1  2  1  0  0  0  0
  1 25  1  0  0  0  0
  1 26  1  0  0  0  0
  1 27  1  0  0  0  0
  2 24  1  0  0  0  0
  2  3  1  0  0  0  0
  3  4  1  0  0  0  0
  3 28  1  0  0  0  0
  3 29  1  0  0  0  0
  4  5  1  0  0  0  0
  4 30  1  0  0  0  0
  4 31  1  0  0  0  0
  5 23  1  0  0  0  0
  5  6  2  0  0  0  0
  6  7  1  0  0  0  0
  6 24  1  0  0  0  0
  7  8  1  0  0  0  0
  7 16  2  0  0  0  0
  8  9  1  0  0  0  0
  8 32  1  0  0  0  0
  9 10  1  0  0  0  0
  9 33  1  0  0  0  0
  9 34  1  0  0  0  0
 10 15  2  0  0  0  0
 10 11  1  0  0  0  0
 11 12  2  0  0  0  0
 11 35  1  0  0  0  0
 12 13  1  0  0  0  0
 12 36  1  0  0  0  0
 13 14  2  0  0  0  0
 13 37  1  0  0  0  0
 14 15  1  0  0  0  0
 14 38  1  0  0  0  0
 15 39  1  0  0  0  0
 16 17  1  0  0  0  0
 17 23  1  0  0  0  0
 17 18  2  0  0  0  0
 18 19  1  0  0  0  0
 19 20  1  0  0  0  0
 19 21  1  0  0  0  0
 21 22  1  0  0  0  0
 21 23  2  0  0  0  0
 22 40  1  0  0  0  0
 22 41  1  0  0  0  0
 24 42  1  0  0  0  0
 24 43  1  0  0  0  0
M  END
$$$$
