ZINC000000000850      none
 OpenBabel11202420153D

 28 29  0  0  1  0  0  0  0  0999 V2000
   32.3616   33.7236   54.1626 C   0  0  0  0  0  0  0  0  0  0  0  0
   33.7407   34.3618   54.3408 C   0  0  1  0  0  0  0  0  0  0  0  0
   34.1257   34.6724   53.3696 H   0  0  0  0  0  0  0  0  0  0  0  0
   33.6255   35.5632   55.2432 C   0  0  0  0  0  0  0  0  0  0  0  0
   33.1902   35.5192   56.4867 C   0  0  0  0  0  0  0  0  0  0  0  0
   33.1690   36.8006   57.1734 C   0  0  0  0  0  0  0  0  0  0  0  0
   32.7706   37.1019   58.4938 C   0  0  0  0  0  0  0  0  0  0  0  0
   32.8248   38.3807   58.9559 C   0  0  0  0  0  0  0  0  0  0  0  0
   33.2725   39.4094   58.1377 C   0  0  0  0  0  0  0  0  0  0  0  0
   33.6670   39.1447   56.8477 C   0  0  0  0  0  0  0  0  0  0  0  0
   33.6191   37.8377   56.3521 C   0  0  0  0  0  0  0  0  0  0  0  0
   34.0497   37.1974   54.7714 S   0  0  0  0  0  0  0  0  0  0  0  0
   34.6559   33.3871   54.9399 N   0  0  0  0  0  0  0  0  0  0  0  0
   35.2695   33.6648   56.1855 O   0  0  0  0  0  0  0  0  0  0  0  0
   34.9138   32.2264   54.3056 C   0  0  0  0  0  0  0  0  0  0  0  0
   35.2118   31.1213   55.0171 N   0  0  0  0  0  0  0  0  0  0  0  0
   34.8777   32.1763   53.0913 O   0  0  0  0  0  0  0  0  0  0  0  0
   32.4449   32.8547   53.5099 H   0  0  0  0  0  0  0  0  0  0  0  0
   31.9765   33.4131   55.1338 H   0  0  0  0  0  0  0  0  0  0  0  0
   31.6807   34.4488   53.7168 H   0  0  0  0  0  0  0  0  0  0  0  0
   32.8774   34.6007   56.9608 H   0  0  0  0  0  0  0  0  0  0  0  0
   32.4201   36.3119   59.1416 H   0  0  0  0  0  0  0  0  0  0  0  0
   32.5171   38.5975   59.9682 H   0  0  0  0  0  0  0  0  0  0  0  0
   33.3106   40.4204   58.5157 H   0  0  0  0  0  0  0  0  0  0  0  0
   34.0141   39.9482   56.2151 H   0  0  0  0  0  0  0  0  0  0  0  0
   35.9145   33.0001   56.4631 H   0  0  0  0  0  0  0  0  0  0  0  0
   35.1692   31.1422   55.9859 H   0  0  0  0  0  0  0  0  0  0  0  0
   35.4689   30.3050   54.5605 H   0  0  0  0  0  0  0  0  0  0  0  0
  1  2  1  0  0  0  0
  1 18  1  0  0  0  0
  1 19  1  0  0  0  0
  1 20  1  0  0  0  0
  2  3  1  6  0  0  0
  2  4  1  0  0  0  0
  2 13  1  0  0  0  0
  4 12  1  0  0  0  0
  4  5  2  0  0  0  0
  5  6  1  0  0  0  0
  5 21  1  0  0  0  0
  6 11  2  0  0  0  0
  6  7  1  0  0  0  0
  7  8  2  0  0  0  0
  7 22  1  0  0  0  0
  8  9  1  0  0  0  0
  8 23  1  0  0  0  0
  9 10  2  0  0  0  0
  9 24  1  0  0  0  0
 10 11  1  0  0  0  0
 10 25  1  0  0  0  0
 11 12  1  0  0  0  0
 13 14  1  0  0  0  0
 13 15  1  0  0  0  0
 14 26  1  0  0  0  0
 15 16  1  0  0  0  0
 15 17  2  0  0  0  0
 16 27  1  0  0  0  0
 16 28  1  0  0  0  0
M  END
$$$$
