ZINC000000044455      none
 OpenBabel11202420153D

 41 43  0  0  0  0  0  0  0  0999 V2000
   34.1912   38.1313   54.7881 C   0  0  0  0  0  0  0  0  0  0  0  0
   33.7429   38.2926   56.2179 C   0  0  0  0  0  0  0  0  0  0  0  0
   33.4619   37.1755   56.9830 C   0  0  0  0  0  0  0  0  0  0  0  0
   33.0453   37.3202   58.2918 C   0  0  0  0  0  0  0  0  0  0  0  0
   32.9193   38.5886   58.8427 C   0  0  0  0  0  0  0  0  0  0  0  0
   32.5036   38.7383   60.1703 N   0  0  0  0  0  0  0  0  0  0  0  0
   31.3013   38.2677   60.5573 C   0  0  0  0  0  0  0  0  0  0  0  0
   30.5798   37.7144   59.7546 O   0  0  0  0  0  0  0  0  0  0  0  0
   30.8537   38.4289   61.9872 C   0  0  0  0  0  0  0  0  0  0  0  0
   31.2872   37.2642   62.7702 N   0  0  0  0  0  0  0  0  0  0  0  0
   31.5053   36.1024   61.9060 C   0  0  0  0  0  0  0  0  0  0  0  0
   31.9268   34.9137   62.7789 C   0  0  0  0  0  0  0  0  0  0  0  0
   30.7236   34.5065   63.6326 C   0  0  0  0  0  0  0  0  0  0  0  0
   30.1101   35.7321   64.2616 C   0  0  0  0  0  0  0  0  0  0  0  0
   29.2268   35.5531   65.3149 C   0  0  0  0  0  0  0  0  0  0  0  0
   28.6332   36.6407   65.9236 C   0  0  0  0  0  0  0  0  0  0  0  0
   28.9192   37.9194   65.4809 C   0  0  0  0  0  0  0  0  0  0  0  0
   29.7976   38.1052   64.4355 C   0  0  0  0  0  0  0  0  0  0  0  0
   30.4032   37.0093   63.8178 C   0  0  0  0  0  0  0  0  0  0  0  0
   33.2074   39.7083   58.0733 C   0  0  0  0  0  0  0  0  0  0  0  0
   33.6180   39.5571   56.7633 C   0  0  0  0  0  0  0  0  0  0  0  0
   35.2780   38.0549   54.7546 H   0  0  0  0  0  0  0  0  0  0  0  0
   33.7502   37.2269   54.3689 H   0  0  0  0  0  0  0  0  0  0  0  0
   33.8696   38.9955   54.2069 H   0  0  0  0  0  0  0  0  0  0  0  0
   33.5647   36.1890   56.5555 H   0  0  0  0  0  0  0  0  0  0  0  0
   32.8220   36.4474   58.8876 H   0  0  0  0  0  0  0  0  0  0  0  0
   33.0806   39.1808   60.8124 H   0  0  0  0  0  0  0  0  0  0  0  0
   31.2950   39.3332   62.4063 H   0  0  0  0  0  0  0  0  0  0  0  0
   29.7669   38.5056   62.0212 H   0  0  0  0  0  0  0  0  0  0  0  0
   30.5824   35.8602   61.3791 H   0  0  0  0  0  0  0  0  0  0  0  0
   32.2908   36.3260   61.1841 H   0  0  0  0  0  0  0  0  0  0  0  0
   32.2286   34.0797   62.1452 H   0  0  0  0  0  0  0  0  0  0  0  0
   32.7557   35.2055   63.4238 H   0  0  0  0  0  0  0  0  0  0  0  0
   29.9833   34.0122   63.0037 H   0  0  0  0  0  0  0  0  0  0  0  0
   31.0494   33.8214   64.4153 H   0  0  0  0  0  0  0  0  0  0  0  0
   29.0017   34.5555   65.6620 H   0  0  0  0  0  0  0  0  0  0  0  0
   27.9463   36.4932   66.7440 H   0  0  0  0  0  0  0  0  0  0  0  0
   28.4548   38.7717   65.9545 H   0  0  0  0  0  0  0  0  0  0  0  0
   30.0193   39.1048   64.0921 H   0  0  0  0  0  0  0  0  0  0  0  0
   33.1107   40.6961   58.4990 H   0  0  0  0  0  0  0  0  0  0  0  0
   33.8421   40.4274   56.1644 H   0  0  0  0  0  0  0  0  0  0  0  0
  1  2  1  0  0  0  0
  1 22  1  0  0  0  0
  1 23  1  0  0  0  0
  1 24  1  0  0  0  0
  2 21  2  0  0  0  0
  2  3  1  0  0  0  0
  3  4  2  0  0  0  0
  3 25  1  0  0  0  0
  4  5  1  0  0  0  0
  4 26  1  0  0  0  0
  5  6  1  0  0  0  0
  5 20  2  0  0  0  0
  6  7  1  0  0  0  0
  6 27  1  0  0  0  0
  7  8  2  0  0  0  0
  7  9  1  0  0  0  0
  9 10  1  0  0  0  0
  9 28  1  0  0  0  0
  9 29  1  0  0  0  0
 10 19  1  0  0  0  0
 10 11  1  0  0  0  0
 11 12  1  0  0  0  0
 11 30  1  0  0  0  0
 11 31  1  0  0  0  0
 12 13  1  0  0  0  0
 12 32  1  0  0  0  0
 12 33  1  0  0  0  0
 13 14  1  0  0  0  0
 13 34  1  0  0  0  0
 13 35  1  0  0  0  0
 14 19  2  0  0  0  0
 14 15  1  0  0  0  0
 15 16  2  0  0  0  0
 15 36  1  0  0  0  0
 16 17  1  0  0  0  0
 16 37  1  0  0  0  0
 17 18  2  0  0  0  0
 17 38  1  0  0  0  0
 18 19  1  0  0  0  0
 18 39  1  0  0  0  0
 20 21  1  0  0  0  0
 20 40  1  0  0  0  0
 21 41  1  0  0  0  0
M  END
$$$$
