ZINC000000031420      none
 OpenBabel11202420163D

 36 37  0  0  1  0  0  0  0  0999 V2000
   31.1085   40.7633   68.0200 C   0  0  0  0  0  0  0  0  0  0  0  0
   30.6099   40.8346   66.5753 C   0  0  0  0  0  0  0  0  0  0  0  0
   30.3219   39.5162   66.1054 O   0  0  0  0  0  0  0  0  0  0  0  0
   31.3289   38.8450   65.5084 C   0  0  0  0  0  0  0  0  0  0  0  0
   32.4218   39.3663   65.3908 O   0  0  0  0  0  0  0  0  0  0  0  0
   31.1137   37.5345   65.0195 C   0  0  0  0  0  0  0  0  0  0  0  0
   31.8434   36.5149   65.5025 C   0  0  0  0  0  0  0  0  0  0  0  0
   32.9112   36.7913   66.5292 C   0  0  0  0  0  0  0  0  0  0  0  0
   31.6345   35.2294   65.0798 N   0  0  0  0  0  0  0  0  0  0  0  0
   30.5268   34.8972   64.3932 C   0  0  0  0  0  0  0  0  0  0  0  0
   30.4037   33.7747   63.9517 O   0  0  0  0  0  0  0  0  0  0  0  0
   29.4376   35.9154   64.1712 C   0  0  0  0  0  0  0  0  0  0  0  0
   30.0677   37.2940   63.9617 C   0  0  2  0  0  0  0  0  0  0  0  0
   29.2963   38.0607   64.0327 H   0  0  0  0  0  0  0  0  0  0  0  0
   30.7089   37.3514   62.5991 C   0  0  0  0  0  0  0  0  0  0  0  0
   32.0644   37.5965   62.4830 C   0  0  0  0  0  0  0  0  0  0  0  0
   32.6532   37.6489   61.2338 C   0  0  0  0  0  0  0  0  0  0  0  0
   31.8861   37.4559   60.0983 C   0  0  0  0  0  0  0  0  0  0  0  0
   32.6259   37.5223   58.5293 Cl  0  0  0  0  0  0  0  0  0  0  0  0
   30.5299   37.2107   60.2139 C   0  0  0  0  0  0  0  0  0  0  0  0
   29.9420   37.1531   61.4649 C   0  0  0  0  0  0  0  0  0  0  0  0
   28.2410   36.8388   61.6113 Cl  0  0  0  0  0  0  0  0  0  0  0  0
   32.0132   40.1567   68.0627 H   0  0  0  0  0  0  0  0  0  0  0  0
   31.3282   41.7689   68.3785 H   0  0  0  0  0  0  0  0  0  0  0  0
   30.3395   40.3136   68.6481 H   0  0  0  0  0  0  0  0  0  0  0  0
   31.3789   41.2843   65.9473 H   0  0  0  0  0  0  0  0  0  0  0  0
   29.7053   41.4413   66.5326 H   0  0  0  0  0  0  0  0  0  0  0  0
   33.3989   35.8569   66.8069 H   0  0  0  0  0  0  0  0  0  0  0  0
   33.6491   37.4759   66.1109 H   0  0  0  0  0  0  0  0  0  0  0  0
   32.4582   37.2412   67.4128 H   0  0  0  0  0  0  0  0  0  0  0  0
   32.2936   34.5472   65.2818 H   0  0  0  0  0  0  0  0  0  0  0  0
   28.8586   35.6422   63.2891 H   0  0  0  0  0  0  0  0  0  0  0  0
   28.7828   35.9434   65.0421 H   0  0  0  0  0  0  0  0  0  0  0  0
   32.6637   37.7467   63.3689 H   0  0  0  0  0  0  0  0  0  0  0  0
   33.7123   37.8407   61.1437 H   0  0  0  0  0  0  0  0  0  0  0  0
   29.9309   37.0598   59.3280 H   0  0  0  0  0  0  0  0  0  0  0  0
  1  2  1  0  0  0  0
  1 23  1  0  0  0  0
  1 24  1  0  0  0  0
  1 25  1  0  0  0  0
  2  3  1  0  0  0  0
  2 26  1  0  0  0  0
  2 27  1  0  0  0  0
  3  4  1  0  0  0  0
  4  5  2  0  0  0  0
  4  6  1  0  0  0  0
  6 13  1  0  0  0  0
  6  7  2  0  0  0  0
  7  8  1  0  0  0  0
  7  9  1  0  0  0  0
  8 28  1  0  0  0  0
  8 29  1  0  0  0  0
  8 30  1  0  0  0  0
  9 10  1  0  0  0  0
  9 31  1  0  0  0  0
 10 11  2  0  0  0  0
 10 12  1  0  0  0  0
 12 13  1  0  0  0  0
 12 32  1  0  0  0  0
 12 33  1  0  0  0  0
 13 14  1  1  0  0  0
 13 15  1  0  0  0  0
 15 21  2  0  0  0  0
 15 16  1  0  0  0  0
 16 17  2  0  0  0  0
 16 34  1  0  0  0  0
 17 18  1  0  0  0  0
 17 35  1  0  0  0  0
 18 19  1  0  0  0  0
 18 20  2  0  0  0  0
 20 21  1  0  0  0  0
 20 36  1  0  0  0  0
 21 22  1  0  0  0  0
M  END
$$$$
