ZINC000000038485      none
 OpenBabel11202420153D

 31 32  0  0  0  0  0  0  0  0999 V2000
   33.0988   38.9819   57.0427 C   0  0  0  0  0  0  0  0  0  0  0  0
   32.7207   38.1451   58.2377 C   0  0  0  0  0  0  0  0  0  0  0  0
   32.3031   38.7535   59.4035 C   0  0  0  0  0  0  0  0  0  0  0  0
   31.9553   37.9868   60.5013 C   0  0  0  0  0  0  0  0  0  0  0  0
   32.0234   36.6060   60.4382 C   0  0  0  0  0  0  0  0  0  0  0  0
   32.4341   35.9850   59.2772 C   0  0  0  0  0  0  0  0  0  0  0  0
   32.7918   36.7530   58.1674 C   0  0  0  0  0  0  0  0  0  0  0  0
   33.2377   36.0944   56.9216 C   0  0  0  0  0  0  0  0  0  0  0  0
   34.0252   36.6561   56.1853 O   0  0  0  0  0  0  0  0  0  0  0  0
   32.7671   34.8733   56.5990 N   0  0  0  0  0  0  0  0  0  0  0  0
   33.1846   34.2527   55.4175 C   0  0  0  0  0  0  0  0  0  0  0  0
   32.9406   34.8564   54.1903 C   0  0  0  0  0  0  0  0  0  0  0  0
   33.3580   34.2430   53.0258 C   0  0  0  0  0  0  0  0  0  0  0  0
   34.0093   33.0239   53.0794 C   0  0  0  0  0  0  0  0  0  0  0  0
   34.2494   32.4182   54.2989 C   0  0  0  0  0  0  0  0  0  0  0  0
   34.9467   31.1135   54.3517 N   0  0  0  0  0  0  0  0  0  0  0  0
   35.3087   30.5744   53.3212 O   0  0  0  0  0  0  0  0  0  0  0  0
   35.1585   30.5793   55.4255 O   0  0  0  0  0  0  0  0  0  0  0  0
   33.8387   33.0288   55.4679 C   0  0  0  0  0  0  0  0  0  0  0  0
   32.2499   39.0482   56.3623 H   0  0  0  0  0  0  0  0  0  0  0  0
   33.3784   39.9822   57.3734 H   0  0  0  0  0  0  0  0  0  0  0  0
   33.9417   38.5204   56.5282 H   0  0  0  0  0  0  0  0  0  0  0  0
   32.2473   39.8306   59.4592 H   0  0  0  0  0  0  0  0  0  0  0  0
   31.6293   38.4680   61.4115 H   0  0  0  0  0  0  0  0  0  0  0  0
   31.7507   36.0133   61.2990 H   0  0  0  0  0  0  0  0  0  0  0  0
   32.4826   34.9073   59.2278 H   0  0  0  0  0  0  0  0  0  0  0  0
   32.1386   34.4251   57.1864 H   0  0  0  0  0  0  0  0  0  0  0  0
   32.4284   35.8061   54.1475 H   0  0  0  0  0  0  0  0  0  0  0  0
   33.1721   34.7136   52.0716 H   0  0  0  0  0  0  0  0  0  0  0  0
   34.3314   32.5445   52.1670 H   0  0  0  0  0  0  0  0  0  0  0  0
   34.0265   32.5550   56.4201 H   0  0  0  0  0  0  0  0  0  0  0  0
  1  2  1  0  0  0  0
  1 20  1  0  0  0  0
  1 21  1  0  0  0  0
  1 22  1  0  0  0  0
  2  7  2  0  0  0  0
  2  3  1  0  0  0  0
  3  4  2  0  0  0  0
  3 23  1  0  0  0  0
  4  5  1  0  0  0  0
  4 24  1  0  0  0  0
  5  6  2  0  0  0  0
  5 25  1  0  0  0  0
  6  7  1  0  0  0  0
  6 26  1  0  0  0  0
  7  8  1  0  0  0  0
  8  9  2  0  0  0  0
  8 10  1  0  0  0  0
 10 11  1  0  0  0  0
 10 27  1  0  0  0  0
 11 19  2  0  0  0  0
 11 12  1  0  0  0  0
 12 13  2  0  0  0  0
 12 28  1  0  0  0  0
 13 14  1  0  0  0  0
 13 29  1  0  0  0  0
 14 15  2  0  0  0  0
 14 30  1  0  0  0  0
 15 16  1  0  0  0  0
 15 19  1  0  0  0  0
 16 17  2  0  0  0  0
 16 18  2  0  0  0  0
 19 31  1  0  0  0  0
M  END
$$$$
