ZINC000000056967      none
 OpenBabel11202420153D

 18 18  0  0  0  0  0  0  0  0999 V2000
   33.1118   40.5935   58.7979 N   0  0  0  0  0  0  0  0  0  0  0  0
   33.0006   39.2861   58.3069 C   0  0  0  0  0  0  0  0  0  0  0  0
   32.5128   38.2752   59.1253 C   0  0  0  0  0  0  0  0  0  0  0  0
   32.0407   38.6313   60.7575 Cl  0  0  0  0  0  0  0  0  0  0  0  0
   32.4041   36.9856   58.6398 C   0  0  0  0  0  0  0  0  0  0  0  0
   32.7817   36.7008   57.3360 C   0  0  0  0  0  0  0  0  0  0  0  0
   32.6746   35.4315   56.8595 O   0  0  0  0  0  0  0  0  0  0  0  0
   33.0814   35.2095   55.5078 C   0  0  0  0  0  0  0  0  0  0  0  0
   34.4302   35.5523   55.3645 F   0  0  0  0  0  0  0  0  0  0  0  0
   32.9063   33.8598   55.1837 F   0  0  0  0  0  0  0  0  0  0  0  0
   32.3060   35.9990   54.6517 F   0  0  0  0  0  0  0  0  0  0  0  0
   33.2737   37.7082   56.5195 C   0  0  0  0  0  0  0  0  0  0  0  0
   33.3785   38.9996   57.0011 C   0  0  0  0  0  0  0  0  0  0  0  0
   33.9882   40.2616   55.9769 Cl  0  0  0  0  0  0  0  0  0  0  0  0
   32.8481   40.7931   59.7099 H   0  0  0  0  0  0  0  0  0  0  0  0
   33.4524   41.2990   58.2261 H   0  0  0  0  0  0  0  0  0  0  0  0
   32.0252   36.1994   59.2761 H   0  0  0  0  0  0  0  0  0  0  0  0
   33.5713   37.4844   55.5057 H   0  0  0  0  0  0  0  0  0  0  0  0
  1  2  1  0  0  0  0
  1 15  1  0  0  0  0
  1 16  1  0  0  0  0
  2 13  2  0  0  0  0
  2  3  1  0  0  0  0
  3  4  1  0  0  0  0
  3  5  2  0  0  0  0
  5  6  1  0  0  0  0
  5 17  1  0  0  0  0
  6  7  1  0  0  0  0
  6 12  2  0  0  0  0
  7  8  1  0  0  0  0
  8  9  1  0  0  0  0
  8 10  1  0  0  0  0
  8 11  1  0  0  0  0
 12 13  1  0  0  0  0
 12 18  1  0  0  0  0
 13 14  1  0  0  0  0
M  END
$$$$
