ZINC000000040770      none
 OpenBabel11202420153D

 33 34  0  0  1  0  0  0  0  0999 V2000
   31.0190   34.8952   64.4953 O   0  0  0  0  0  0  0  0  0  0  0  0
   30.5107   34.1345   63.3975 C   0  0  0  0  0  0  0  0  0  0  0  0
   31.3376   34.4315   62.1450 C   0  0  2  0  0  0  0  0  0  0  0  0
   31.2033   33.6272   61.4217 H   0  0  0  0  0  0  0  0  0  0  0  0
   32.7189   34.5289   62.4980 O   0  0  0  0  0  0  0  0  0  0  0  0
   30.8742   35.7535   61.5295 C   0  0  2  0  0  0  0  0  0  0  0  0
   29.8206   35.6807   61.2596 H   0  0  0  0  0  0  0  0  0  0  0  0
   31.6497   36.0356   60.3606 O   0  0  0  0  0  0  0  0  0  0  0  0
   31.3233   37.2810   59.7392 C   0  0  2  0  0  0  0  0  0  0  0  0
   30.2813   37.2655   59.4194 H   0  0  0  0  0  0  0  0  0  0  0  0
   32.2132   37.4935   58.5416 C   0  0  0  0  0  0  0  0  0  0  0  0
   32.5496   38.7757   58.1496 C   0  0  0  0  0  0  0  0  0  0  0  0
   33.3699   38.9705   57.0540 C   0  0  0  0  0  0  0  0  0  0  0  0
   33.8455   37.8833   56.3446 C   0  0  0  0  0  0  0  0  0  0  0  0
   33.5045   36.6016   56.7334 C   0  0  0  0  0  0  0  0  0  0  0  0
   32.6884   36.4065   57.8321 C   0  0  0  0  0  0  0  0  0  0  0  0
   31.5192   38.3455   60.6733 O   0  0  0  0  0  0  0  0  0  0  0  0
   30.7348   38.2201   61.8635 C   0  0  0  0  0  0  0  0  0  0  0  0
   31.0673   36.8869   62.5429 C   0  0  2  0  0  0  0  0  0  0  0  0
   30.4034   36.7330   63.3936 H   0  0  0  0  0  0  0  0  0  0  0  0
   32.4248   36.9043   62.9889 O   0  0  0  0  0  0  0  0  0  0  0  0
   30.5414   34.7564   65.3246 H   0  0  0  0  0  0  0  0  0  0  0  0
   30.5744   33.0717   63.6315 H   0  0  0  0  0  0  0  0  0  0  0  0
   29.4702   34.4054   63.2186 H   0  0  0  0  0  0  0  0  0  0  0  0
   32.9126   35.2258   63.1398 H   0  0  0  0  0  0  0  0  0  0  0  0
   32.1747   39.6251   58.7013 H   0  0  0  0  0  0  0  0  0  0  0  0
   33.6361   39.9722   56.7501 H   0  0  0  0  0  0  0  0  0  0  0  0
   34.4834   38.0357   55.4864 H   0  0  0  0  0  0  0  0  0  0  0  0
   33.8758   35.7524   56.1790 H   0  0  0  0  0  0  0  0  0  0  0  0
   32.4220   35.4051   58.1359 H   0  0  0  0  0  0  0  0  0  0  0  0
   30.9653   39.0424   62.5407 H   0  0  0  0  0  0  0  0  0  0  0  0
   29.6757   38.2446   61.6068 H   0  0  0  0  0  0  0  0  0  0  0  0
   32.6180   37.5986   63.6335 H   0  0  0  0  0  0  0  0  0  0  0  0
  1  2  1  0  0  0  0
  1 22  1  0  0  0  0
  2  3  1  0  0  0  0
  2 23  1  0  0  0  0
  2 24  1  0  0  0  0
  3  4  1  6  0  0  0
  3  5  1  0  0  0  0
  3  6  1  0  0  0  0
  5 25  1  0  0  0  0
  6  7  1  6  0  0  0
  6 19  1  0  0  0  0
  6  8  1  0  0  0  0
  8  9  1  0  0  0  0
  9 10  1  6  0  0  0
  9 11  1  0  0  0  0
  9 17  1  0  0  0  0
 11 16  2  0  0  0  0
 11 12  1  0  0  0  0
 12 13  2  0  0  0  0
 12 26  1  0  0  0  0
 13 14  1  0  0  0  0
 13 27  1  0  0  0  0
 14 15  2  0  0  0  0
 14 28  1  0  0  0  0
 15 16  1  0  0  0  0
 15 29  1  0  0  0  0
 16 30  1  0  0  0  0
 17 18  1  0  0  0  0
 18 19  1  0  0  0  0
 18 31  1  0  0  0  0
 18 32  1  0  0  0  0
 19 20  1  1  0  0  0
 19 21  1  0  0  0  0
 21 33  1  0  0  0  0
M  END
$$$$
