ZINC000000057688      none
 OpenBabel11202420153D

 31 33  0  0  0  0  0  0  0  0999 V2000
   32.4634   38.0724   59.7184 C   0  0  0  0  0  0  0  0  0  0  0  0
   31.7633   38.8703   60.6752 O   0  0  0  0  0  0  0  0  0  0  0  0
   31.5641   38.3263   61.9046 C   0  0  0  0  0  0  0  0  0  0  0  0
   32.0382   37.0514   62.1844 C   0  0  0  0  0  0  0  0  0  0  0  0
   31.8343   36.4905   63.4317 C   0  0  0  0  0  0  0  0  0  0  0  0
   31.1621   37.1958   64.4087 C   0  0  0  0  0  0  0  0  0  0  0  0
   30.6859   38.4806   64.1385 C   0  0  0  0  0  0  0  0  0  0  0  0
   29.9663   39.2389   65.1816 C   0  0  0  0  0  0  0  0  0  0  0  0
   28.6891   39.6356   64.9374 C   0  0  0  0  0  0  0  0  0  0  0  0
   27.9816   40.3589   65.9271 C   0  0  0  0  0  0  0  0  0  0  0  0
   26.8328   40.7267   65.7441 O   0  0  0  0  0  0  0  0  0  0  0  0
   28.6898   40.6547   67.1867 C   0  0  0  0  0  0  0  0  0  0  0  0
   28.0719   41.3655   68.2159 C   0  0  0  0  0  0  0  0  0  0  0  0
   28.7573   41.6214   69.3695 C   0  0  0  0  0  0  0  0  0  0  0  0
   30.0683   41.1760   69.5233 C   0  0  0  0  0  0  0  0  0  0  0  0
   30.7372   41.4371   70.6754 O   0  5  0  0  0  0  0  0  0  0  0  0
   30.6954   40.4698   68.5102 C   0  0  0  0  0  0  0  0  0  0  0  0
   30.0121   40.2019   67.3328 C   0  0  0  0  0  0  0  0  0  0  0  0
   30.6004   39.5145   66.3319 O   0  0  0  0  0  0  0  0  0  0  0  0
   30.8929   39.0454   62.8786 C   0  0  0  0  0  0  0  0  0  0  0  0
   32.5540   38.6236   58.7824 H   0  0  0  0  0  0  0  0  0  0  0  0
   33.4572   37.8371   60.0992 H   0  0  0  0  0  0  0  0  0  0  0  0
   31.9128   37.1480   59.5440 H   0  0  0  0  0  0  0  0  0  0  0  0
   32.5647   36.4942   61.4236 H   0  0  0  0  0  0  0  0  0  0  0  0
   32.2022   35.4971   63.6418 H   0  0  0  0  0  0  0  0  0  0  0  0
   31.0047   36.7548   65.3819 H   0  0  0  0  0  0  0  0  0  0  0  0
   28.2163   39.3971   63.9962 H   0  0  0  0  0  0  0  0  0  0  0  0
   27.0555   41.7120   68.1011 H   0  0  0  0  0  0  0  0  0  0  0  0
   28.2800   42.1715   70.1668 H   0  0  0  0  0  0  0  0  0  0  0  0
   31.7121   40.1282   68.6367 H   0  0  0  0  0  0  0  0  0  0  0  0
   30.5267   40.0382   62.6633 H   0  0  0  0  0  0  0  0  0  0  0  0
  1  2  1  0  0  0  0
  1 21  1  0  0  0  0
  1 22  1  0  0  0  0
  1 23  1  0  0  0  0
  2  3  1  0  0  0  0
  3 20  2  0  0  0  0
  3  4  1  0  0  0  0
  4  5  2  0  0  0  0
  4 24  1  0  0  0  0
  5  6  1  0  0  0  0
  5 25  1  0  0  0  0
  6  7  2  0  0  0  0
  6 26  1  0  0  0  0
  7  8  1  0  0  0  0
  7 20  1  0  0  0  0
  8 19  1  0  0  0  0
  8  9  2  0  0  0  0
  9 10  1  0  0  0  0
  9 27  1  0  0  0  0
 10 11  2  0  0  0  0
 10 12  1  0  0  0  0
 12 18  2  0  0  0  0
 12 13  1  0  0  0  0
 13 14  2  0  0  0  0
 13 28  1  0  0  0  0
 14 15  1  0  0  0  0
 14 29  1  0  0  0  0
 15 16  1  0  0  0  0
 15 17  2  0  0  0  0
 17 18  1  0  0  0  0
 17 30  1  0  0  0  0
 18 19  1  0  0  0  0
 20 31  1  0  0  0  0
M  CHG  1  16  -1
M  END
$$$$
