ZINC000000054267      none
 OpenBabel11202420153D

 39 41  0  0  1  0  0  0  0  0999 V2000
   29.0836   37.9180   62.9038 C   0  0  0  0  0  0  0  0  0  0  0  0
   30.2536   37.8569   63.8878 C   0  0  0  0  0  0  0  0  0  0  0  0
   31.5285   37.4543   63.1437 C   0  0  1  0  0  0  0  0  0  0  0  0
   32.6992   37.3274   64.1206 C   0  0  0  0  0  0  0  0  0  0  0  0
   31.3239   36.1903   62.4184 N   0  0  0  0  0  0  0  0  0  0  0  0
   31.5073   36.4559   61.1122 C   0  0  0  0  0  0  0  0  0  0  0  0
   31.3746   35.2894   59.8661 S   0  0  0  0  0  0  0  0  0  0  0  0
   31.8069   37.7452   60.9068 N   0  0  0  0  0  0  0  0  0  0  0  0
   32.0510   38.3109   59.6509 C   0  0  0  0  0  0  0  0  0  0  0  0
   33.2761   38.9078   59.3827 C   0  0  0  0  0  0  0  0  0  0  0  0
   33.5137   39.4660   58.1420 C   0  0  0  0  0  0  0  0  0  0  0  0
   32.5335   39.4309   57.1672 C   0  0  0  0  0  0  0  0  0  0  0  0
   31.3108   38.8420   57.4328 C   0  0  0  0  0  0  0  0  0  0  0  0
   31.0687   38.2774   58.6697 C   0  0  0  0  0  0  0  0  0  0  0  0
   31.8484   38.4331   62.0856 N   0  0  0  0  0  0  0  0  0  0  0  0
   30.4504   39.2308   64.5377 C   0  0  0  0  0  0  0  0  0  0  0  0
   29.3045   39.5334   65.3400 O   0  0  0  0  0  0  0  0  0  0  0  0
   29.0376   38.5643   66.3568 C   0  0  0  0  0  0  0  0  0  0  0  0
   28.8356   37.2839   65.7536 O   0  0  0  0  0  0  0  0  0  0  0  0
   29.9509   36.8274   64.9820 C   0  0  0  0  0  0  0  0  0  0  0  0
   28.9423   36.9391   62.4460 H   0  0  0  0  0  0  0  0  0  0  0  0
   28.1763   38.2050   63.4355 H   0  0  0  0  0  0  0  0  0  0  0  0
   29.2985   38.6538   62.1289 H   0  0  0  0  0  0  0  0  0  0  0  0
   33.6050   37.0720   63.5709 H   0  0  0  0  0  0  0  0  0  0  0  0
   32.8440   38.2751   64.6393 H   0  0  0  0  0  0  0  0  0  0  0  0
   32.4826   36.5448   64.8476 H   0  0  0  0  0  0  0  0  0  0  0  0
   31.1001   35.3304   62.8076 H   0  0  0  0  0  0  0  0  0  0  0  0
   34.0419   38.9358   60.1438 H   0  0  0  0  0  0  0  0  0  0  0  0
   34.4662   39.9299   57.9327 H   0  0  0  0  0  0  0  0  0  0  0  0
   32.7217   39.8683   56.1978 H   0  0  0  0  0  0  0  0  0  0  0  0
   30.5459   38.8198   56.6706 H   0  0  0  0  0  0  0  0  0  0  0  0
   30.1151   37.8140   58.8751 H   0  0  0  0  0  0  0  0  0  0  0  0
   32.7584   38.8433   62.2332 H   0  0  0  0  0  0  0  0  0  0  0  0
   31.3400   39.2126   65.1673 H   0  0  0  0  0  0  0  0  0  0  0  0
   30.5658   39.9880   63.7622 H   0  0  0  0  0  0  0  0  0  0  0  0
   28.1419   38.8522   66.9069 H   0  0  0  0  0  0  0  0  0  0  0  0
   29.8841   38.5139   67.0416 H   0  0  0  0  0  0  0  0  0  0  0  0
   29.7096   35.8682   64.5241 H   0  0  0  0  0  0  0  0  0  0  0  0
   30.8211   36.7161   65.6290 H   0  0  0  0  0  0  0  0  0  0  0  0
  1  2  1  0  0  0  0
  1 21  1  0  0  0  0
  1 22  1  0  0  0  0
  1 23  1  0  0  0  0
  2 20  1  0  0  0  0
  2  3  1  0  0  0  0
  2 16  1  0  0  0  0
  3 15  1  0  0  0  0
  3  4  1  1  0  0  0
  3  5  1  0  0  0  0
  4 24  1  0  0  0  0
  4 25  1  0  0  0  0
  4 26  1  0  0  0  0
  5  6  1  0  0  0  0
  5 27  1  0  0  0  0
  6  7  2  0  0  0  0
  6  8  1  0  0  0  0
  8  9  1  0  0  0  0
  8 15  1  0  0  0  0
  9 14  2  0  0  0  0
  9 10  1  0  0  0  0
 10 11  2  0  0  0  0
 10 28  1  0  0  0  0
 11 12  1  0  0  0  0
 11 29  1  0  0  0  0
 12 13  2  0  0  0  0
 12 30  1  0  0  0  0
 13 14  1  0  0  0  0
 13 31  1  0  0  0  0
 14 32  1  0  0  0  0
 15 33  1  0  0  0  0
 16 17  1  0  0  0  0
 16 34  1  0  0  0  0
 16 35  1  0  0  0  0
 17 18  1  0  0  0  0
 18 19  1  0  0  0  0
 18 36  1  0  0  0  0
 18 37  1  0  0  0  0
 19 20  1  0  0  0  0
 20 38  1  0  0  0  0
 20 39  1  0  0  0  0
M  END
$$$$
