ZINC000000003180      none
 OpenBabel11202420153D

 32 33  0  0  0  0  0  0  0  0999 V2000
   31.6839   37.8743   59.8182 C   0  0  0  0  0  0  0  0  0  0  0  0
   31.8486   36.9112   60.9654 C   0  0  0  0  0  0  0  0  0  0  0  0
   31.7223   37.3560   62.2653 C   0  0  0  0  0  0  0  0  0  0  0  0
   31.8681   36.4712   63.3197 C   0  0  0  0  0  0  0  0  0  0  0  0
   32.1454   35.1383   63.0781 C   0  0  0  0  0  0  0  0  0  0  0  0
   32.2795   34.6818   61.7830 C   0  0  0  0  0  0  0  0  0  0  0  0
   32.5827   33.2288   61.5221 C   0  0  0  0  0  0  0  0  0  0  0  0
   32.1341   35.5684   60.7155 C   0  0  0  0  0  0  0  0  0  0  0  0
   32.2657   35.1206   59.4251 N   0  0  0  0  0  0  0  0  0  0  0  0
   32.6994   35.9165   58.5073 N   0  0  0  0  0  0  0  0  0  0  0  0
   32.8339   35.4593   57.1898 N   0  0  0  0  0  0  0  0  0  0  0  0
   32.5245   34.1016   56.7183 C   0  0  0  0  0  0  0  0  0  0  0  0
   32.8477   34.0555   55.2101 C   0  0  0  0  0  0  0  0  0  0  0  0
   33.8610   35.2179   55.0383 C   0  0  0  0  0  0  0  0  0  0  0  0
   33.3150   36.2582   56.0480 C   0  0  0  0  0  0  0  0  0  0  0  0
   32.6626   38.2397   59.5071 H   0  0  0  0  0  0  0  0  0  0  0  0
   31.2037   37.3654   58.9824 H   0  0  0  0  0  0  0  0  0  0  0  0
   31.0663   38.7147   60.1351 H   0  0  0  0  0  0  0  0  0  0  0  0
   31.5050   38.3959   62.4602 H   0  0  0  0  0  0  0  0  0  0  0  0
   31.7644   36.8236   64.3352 H   0  0  0  0  0  0  0  0  0  0  0  0
   32.2574   34.4531   63.9053 H   0  0  0  0  0  0  0  0  0  0  0  0
   31.6493   32.6742   61.4271 H   0  0  0  0  0  0  0  0  0  0  0  0
   33.1554   33.1372   60.5991 H   0  0  0  0  0  0  0  0  0  0  0  0
   33.1629   32.8241   62.3513 H   0  0  0  0  0  0  0  0  0  0  0  0
   33.1365   33.3751   57.2528 H   0  0  0  0  0  0  0  0  0  0  0  0
   31.4677   33.8863   56.8756 H   0  0  0  0  0  0  0  0  0  0  0  0
   31.9524   34.2332   54.6144 H   0  0  0  0  0  0  0  0  0  0  0  0
   33.3057   33.1024   54.9451 H   0  0  0  0  0  0  0  0  0  0  0  0
   33.8368   35.6103   54.0216 H   0  0  0  0  0  0  0  0  0  0  0  0
   34.8682   34.9016   55.3095 H   0  0  0  0  0  0  0  0  0  0  0  0
   32.4930   36.8210   55.6057 H   0  0  0  0  0  0  0  0  0  0  0  0
   34.1089   36.9341   56.3656 H   0  0  0  0  0  0  0  0  0  0  0  0
  1  2  1  0  0  0  0
  1 16  1  0  0  0  0
  1 17  1  0  0  0  0
  1 18  1  0  0  0  0
  2  8  2  0  0  0  0
  2  3  1  0  0  0  0
  3  4  2  0  0  0  0
  3 19  1  0  0  0  0
  4  5  1  0  0  0  0
  4 20  1  0  0  0  0
  5  6  2  0  0  0  0
  5 21  1  0  0  0  0
  6  7  1  0  0  0  0
  6  8  1  0  0  0  0
  7 22  1  0  0  0  0
  7 23  1  0  0  0  0
  7 24  1  0  0  0  0
  8  9  1  0  0  0  0
  9 10  2  0  0  0  0
 10 11  1  0  0  0  0
 11 15  1  0  0  0  0
 11 12  1  0  0  0  0
 12 13  1  0  0  0  0
 12 25  1  0  0  0  0
 12 26  1  0  0  0  0
 13 14  1  0  0  0  0
 13 27  1  0  0  0  0
 13 28  1  0  0  0  0
 14 15  1  0  0  0  0
 14 29  1  0  0  0  0
 14 30  1  0  0  0  0
 15 31  1  0  0  0  0
 15 32  1  0  0  0  0
M  END
$$$$
