ZINC000000050613      none
 OpenBabel11202420153D

 26 28  0  0  0  0  0  0  0  0999 V2000
   30.2892   34.0158   63.3930 O   0  0  0  0  0  0  0  0  0  0  0  0
   30.7802   34.4189   62.1904 C   0  0  0  0  0  0  0  0  0  0  0  0
   30.0967   35.3697   61.4476 C   0  0  0  0  0  0  0  0  0  0  0  0
   30.5910   35.7822   60.2272 C   0  0  0  0  0  0  0  0  0  0  0  0
   31.7813   35.2424   59.7379 C   0  0  0  0  0  0  0  0  0  0  0  0
   32.3122   35.6831   58.4297 C   0  0  0  0  0  0  0  0  0  0  0  0
   32.4960   34.8127   57.4397 C   0  0  0  0  0  0  0  0  0  0  0  0
   33.1312   35.7548   56.0819 S   0  0  0  0  0  0  0  0  0  0  0  0
   33.1174   37.3005   56.9602 C   0  0  0  0  0  0  0  0  0  0  0  0
   33.4160   38.5591   56.7727 N   0  0  0  0  0  0  0  0  0  0  0  0
   33.1419   39.3293   57.9891 C   0  0  0  0  0  0  0  0  0  0  0  0
   32.6071   38.2828   58.9800 C   0  0  0  0  0  0  0  0  0  0  0  0
   32.6368   37.0135   58.2054 N   0  0  0  0  0  0  0  0  0  0  0  0
   32.4692   34.2855   60.4854 C   0  0  0  0  0  0  0  0  0  0  0  0
   31.9711   33.8801   61.7104 C   0  0  0  0  0  0  0  0  0  0  0  0
   32.6418   32.9518   62.4436 O   0  0  0  0  0  0  0  0  0  0  0  0
   29.4590   34.4444   63.6424 H   0  0  0  0  0  0  0  0  0  0  0  0
   29.1756   35.7885   61.8253 H   0  0  0  0  0  0  0  0  0  0  0  0
   30.0564   36.5225   59.6505 H   0  0  0  0  0  0  0  0  0  0  0  0
   32.2968   33.7514   57.4597 H   0  0  0  0  0  0  0  0  0  0  0  0
   32.3883   40.0929   57.7962 H   0  0  0  0  0  0  0  0  0  0  0  0
   34.0562   39.7841   58.3702 H   0  0  0  0  0  0  0  0  0  0  0  0
   31.5874   38.5248   59.2792 H   0  0  0  0  0  0  0  0  0  0  0  0
   33.2552   38.2133   59.8536 H   0  0  0  0  0  0  0  0  0  0  0  0
   33.3909   33.8658   60.1101 H   0  0  0  0  0  0  0  0  0  0  0  0
   32.2149   32.7297   63.2824 H   0  0  0  0  0  0  0  0  0  0  0  0
  1  2  1  0  0  0  0
  1 17  1  0  0  0  0
  2 15  2  0  0  0  0
  2  3  1  0  0  0  0
  3  4  2  0  0  0  0
  3 18  1  0  0  0  0
  4  5  1  0  0  0  0
  4 19  1  0  0  0  0
  5  6  1  0  0  0  0
  5 14  2  0  0  0  0
  6 13  1  0  0  0  0
  6  7  2  0  0  0  0
  7  8  1  0  0  0  0
  7 20  1  0  0  0  0
  8  9  1  0  0  0  0
  9 13  1  0  0  0  0
  9 10  2  0  0  0  0
 10 11  1  0  0  0  0
 11 12  1  0  0  0  0
 11 21  1  0  0  0  0
 11 22  1  0  0  0  0
 12 13  1  0  0  0  0
 12 23  1  0  0  0  0
 12 24  1  0  0  0  0
 14 15  1  0  0  0  0
 14 25  1  0  0  0  0
 15 16  1  0  0  0  0
 16 26  1  0  0  0  0
M  END
$$$$
