ZINC000000030211      none
 OpenBabel11202420163D

 28 30  0  0  0  0  0  0  0  0999 V2000
   32.7985   38.9290   59.0336 O   0  0  0  0  0  0  0  0  0  0  0  0
   32.5539   37.9318   58.3823 C   0  0  0  0  0  0  0  0  0  0  0  0
   31.6812   37.0179   58.8511 N   0  0  0  0  0  0  0  0  0  0  0  0
   31.0572   37.2164   60.0870 C   0  0  0  0  0  0  0  0  0  0  0  0
   31.7004   37.9274   61.0975 C   0  0  0  0  0  0  0  0  0  0  0  0
   31.0439   38.0931   62.3057 C   0  0  0  0  0  0  0  0  0  0  0  0
   29.7774   37.5614   62.4646 C   0  0  0  0  0  0  0  0  0  0  0  0
   29.1955   36.8933   61.4880 N   0  0  0  0  0  0  0  0  0  0  0  0
   29.7869   36.7081   60.3246 C   0  0  0  0  0  0  0  0  0  0  0  0
   33.2125   37.7223   57.0783 C   0  0  0  0  0  0  0  0  0  0  0  0
   33.4081   36.4270   56.5925 C   0  0  0  0  0  0  0  0  0  0  0  0
   34.0222   36.2334   55.3746 C   0  0  0  0  0  0  0  0  0  0  0  0
   34.4494   37.3223   54.6263 C   0  0  0  0  0  0  0  0  0  0  0  0
   34.2574   38.6186   55.1060 C   0  0  0  0  0  0  0  0  0  0  0  0
   33.6367   38.8192   56.3235 C   0  0  0  0  0  0  0  0  0  0  0  0
   34.7604   39.5000   54.1925 O   0  0  0  0  0  0  0  0  0  0  0  0
   35.6256   38.7216   53.3448 C   0  0  0  0  0  0  0  0  0  0  0  0
   35.0710   37.3949   53.4148 O   0  0  0  0  0  0  0  0  0  0  0  0
   31.4861   36.2224   58.3314 H   0  0  0  0  0  0  0  0  0  0  0  0
   32.6885   38.3354   60.9442 H   0  0  0  0  0  0  0  0  0  0  0  0
   31.5141   38.6348   63.1130 H   0  0  0  0  0  0  0  0  0  0  0  0
   29.2592   37.6916   63.4032 H   0  0  0  0  0  0  0  0  0  0  0  0
   29.2785   36.1554   59.5485 H   0  0  0  0  0  0  0  0  0  0  0  0
   33.0776   35.5774   57.1718 H   0  0  0  0  0  0  0  0  0  0  0  0
   34.1722   35.2314   55.0007 H   0  0  0  0  0  0  0  0  0  0  0  0
   33.4835   39.8220   56.6939 H   0  0  0  0  0  0  0  0  0  0  0  0
   36.6461   38.7306   53.7276 H   0  0  0  0  0  0  0  0  0  0  0  0
   35.5961   39.0953   52.3213 H   0  0  0  0  0  0  0  0  0  0  0  0
  1  2  2  0  0  0  0
  2  3  1  0  0  0  0
  2 10  1  0  0  0  0
  3  4  1  0  0  0  0
  3 19  1  0  0  0  0
  4  9  2  0  0  0  0
  4  5  1  0  0  0  0
  5  6  2  0  0  0  0
  5 20  1  0  0  0  0
  6  7  1  0  0  0  0
  6 21  1  0  0  0  0
  7  8  2  0  0  0  0
  7 22  1  0  0  0  0
  8  9  1  0  0  0  0
  9 23  1  0  0  0  0
 10 15  2  0  0  0  0
 10 11  1  0  0  0  0
 11 12  2  0  0  0  0
 11 24  1  0  0  0  0
 12 13  1  0  0  0  0
 12 25  1  0  0  0  0
 13 18  1  0  0  0  0
 13 14  2  0  0  0  0
 14 15  1  0  0  0  0
 14 16  1  0  0  0  0
 15 26  1  0  0  0  0
 16 17  1  0  0  0  0
 17 18  1  0  0  0  0
 17 27  1  0  0  0  0
 17 28  1  0  0  0  0
M  END
$$$$
