ZINC000000047382      none
 OpenBabel11202420153D

 32 33  0  0  0  0  0  0  0  0999 V2000
   33.1079   39.0202   58.3158 C   0  0  0  0  0  0  0  0  0  0  0  0
   32.0730   37.9529   58.0698 C   0  0  0  0  0  0  0  0  0  0  0  0
   31.0603   38.2190   57.4534 O   0  0  0  0  0  0  0  0  0  0  0  0
   32.2795   36.6467   58.5544 C   0  0  0  0  0  0  0  0  0  0  0  0
   32.9646   35.6580   57.7225 C   0  0  0  0  0  0  0  0  0  0  0  0
   33.6202   34.7739   58.2431 O   0  0  0  0  0  0  0  0  0  0  0  0
   32.8609   35.7322   56.2486 C   0  0  0  0  0  0  0  0  0  0  0  0
   32.3157   34.6672   55.5298 C   0  0  0  0  0  0  0  0  0  0  0  0
   32.2223   34.7426   54.1555 C   0  0  0  0  0  0  0  0  0  0  0  0
   32.6725   35.8685   53.4892 C   0  0  0  0  0  0  0  0  0  0  0  0
   32.5731   35.9413   51.9872 C   0  0  0  0  0  0  0  0  0  0  0  0
   33.2092   36.9298   54.1962 C   0  0  0  0  0  0  0  0  0  0  0  0
   33.3083   36.8672   55.5707 C   0  0  0  0  0  0  0  0  0  0  0  0
   31.8269   36.2928   59.8389 C   0  0  0  0  0  0  0  0  0  0  0  0
   32.0142   34.7509   60.5202 S   0  0  0  0  0  0  0  0  0  0  0  0
   31.2502   34.9327   62.1364 C   0  0  0  0  0  0  0  0  0  0  0  0
   30.7135   36.3327   62.3328 C   0  0  0  0  0  0  0  0  0  0  0  0
   31.0224   37.3554   60.8880 S   0  0  0  0  0  0  0  0  0  0  0  0
   34.0745   38.6822   57.9421 H   0  0  0  0  0  0  0  0  0  0  0  0
   32.8175   39.9342   57.7974 H   0  0  0  0  0  0  0  0  0  0  0  0
   33.1803   39.2167   59.3855 H   0  0  0  0  0  0  0  0  0  0  0  0
   31.9680   33.7859   56.0485 H   0  0  0  0  0  0  0  0  0  0  0  0
   31.8010   33.9190   53.5982 H   0  0  0  0  0  0  0  0  0  0  0  0
   31.6157   36.3807   51.7073 H   0  0  0  0  0  0  0  0  0  0  0  0
   33.3834   36.5582   51.5989 H   0  0  0  0  0  0  0  0  0  0  0  0
   32.6482   34.9374   51.5691 H   0  0  0  0  0  0  0  0  0  0  0  0
   33.5550   37.8076   53.6704 H   0  0  0  0  0  0  0  0  0  0  0  0
   33.7307   37.6948   56.1212 H   0  0  0  0  0  0  0  0  0  0  0  0
   31.9881   34.7209   62.9101 H   0  0  0  0  0  0  0  0  0  0  0  0
   30.4297   34.2202   62.2207 H   0  0  0  0  0  0  0  0  0  0  0  0
   31.1976   36.7829   63.1994 H   0  0  0  0  0  0  0  0  0  0  0  0
   29.6393   36.2806   62.5107 H   0  0  0  0  0  0  0  0  0  0  0  0
  1  2  1  0  0  0  0
  1 19  1  0  0  0  0
  1 20  1  0  0  0  0
  1 21  1  0  0  0  0
  2  3  2  0  0  0  0
  2  4  1  0  0  0  0
  4  5  1  0  0  0  0
  4 14  2  0  0  0  0
  5  6  2  0  0  0  0
  5  7  1  0  0  0  0
  7 13  2  0  0  0  0
  7  8  1  0  0  0  0
  8  9  2  0  0  0  0
  8 22  1  0  0  0  0
  9 10  1  0  0  0  0
  9 23  1  0  0  0  0
 10 11  1  0  0  0  0
 10 12  2  0  0  0  0
 11 24  1  0  0  0  0
 11 25  1  0  0  0  0
 11 26  1  0  0  0  0
 12 13  1  0  0  0  0
 12 27  1  0  0  0  0
 13 28  1  0  0  0  0
 14 18  1  0  0  0  0
 14 15  1  0  0  0  0
 15 16  1  0  0  0  0
 16 17  1  0  0  0  0
 16 29  1  0  0  0  0
 16 30  1  0  0  0  0
 17 18  1  0  0  0  0
 17 31  1  0  0  0  0
 17 32  1  0  0  0  0
M  END
$$$$
