ZINC000000056879      none
 OpenBabel11202420153D

 26 27  0  0  0  0  0  0  0  0999 V2000
   31.1590   35.2091   60.5818 N   0  0  0  0  0  0  0  0  0  0  0  0
   31.7244   36.2946   59.9254 C   0  0  0  0  0  0  0  0  0  0  0  0
   32.4348   36.1051   58.7465 C   0  0  0  0  0  0  0  0  0  0  0  0
   32.9952   37.1846   58.0956 C   0  0  0  0  0  0  0  0  0  0  0  0
   32.8556   38.4655   58.6103 C   0  0  0  0  0  0  0  0  0  0  0  0
   33.5674   39.8127   57.7784 Cl  0  0  0  0  0  0  0  0  0  0  0  0
   32.1494   38.6745   59.7750 C   0  0  0  0  0  0  0  0  0  0  0  0
   31.5803   37.5897   60.4495 C   0  0  0  0  0  0  0  0  0  0  0  0
   30.8295   37.8046   61.6988 C   0  0  0  0  0  0  0  0  0  0  0  0
   29.6329   38.0191   61.6599 O   0  0  0  0  0  0  0  0  0  0  0  0
   31.5297   37.7596   62.9981 C   0  0  0  0  0  0  0  0  0  0  0  0
   32.6537   36.9461   63.1623 C   0  0  0  0  0  0  0  0  0  0  0  0
   33.3022   36.9083   64.3779 C   0  0  0  0  0  0  0  0  0  0  0  0
   32.8437   37.6743   65.4367 C   0  0  0  0  0  0  0  0  0  0  0  0
   31.7327   38.4823   65.2846 C   0  0  0  0  0  0  0  0  0  0  0  0
   31.0675   38.5270   64.0729 C   0  0  0  0  0  0  0  0  0  0  0  0
   29.9782   39.3125   63.9260 F   0  0  0  0  0  0  0  0  0  0  0  0
   30.5860   35.3523   61.3512 H   0  0  0  0  0  0  0  0  0  0  0  0
   31.3374   34.3078   60.2710 H   0  0  0  0  0  0  0  0  0  0  0  0
   32.5482   35.1113   58.3390 H   0  0  0  0  0  0  0  0  0  0  0  0
   33.5465   37.0316   57.1795 H   0  0  0  0  0  0  0  0  0  0  0  0
   32.0395   39.6741   60.1689 H   0  0  0  0  0  0  0  0  0  0  0  0
   33.0139   36.3482   62.3381 H   0  0  0  0  0  0  0  0  0  0  0  0
   34.1710   36.2796   64.5051 H   0  0  0  0  0  0  0  0  0  0  0  0
   33.3572   37.6404   66.3862 H   0  0  0  0  0  0  0  0  0  0  0  0
   31.3807   39.0767   66.1148 H   0  0  0  0  0  0  0  0  0  0  0  0
  1  2  1  0  0  0  0
  1 18  1  0  0  0  0
  1 19  1  0  0  0  0
  2  8  2  0  0  0  0
  2  3  1  0  0  0  0
  3  4  2  0  0  0  0
  3 20  1  0  0  0  0
  4  5  1  0  0  0  0
  4 21  1  0  0  0  0
  5  6  1  0  0  0  0
  5  7  2  0  0  0  0
  7  8  1  0  0  0  0
  7 22  1  0  0  0  0
  8  9  1  0  0  0  0
  9 10  2  0  0  0  0
  9 11  1  0  0  0  0
 11 16  2  0  0  0  0
 11 12  1  0  0  0  0
 12 13  2  0  0  0  0
 12 23  1  0  0  0  0
 13 14  1  0  0  0  0
 13 24  1  0  0  0  0
 14 15  2  0  0  0  0
 14 25  1  0  0  0  0
 15 16  1  0  0  0  0
 15 26  1  0  0  0  0
 16 17  1  0  0  0  0
M  END
$$$$
