ZINC000000032963      none
 OpenBabel11202420153D

 34 37  0  0  0  0  0  0  0  0999 V2000
   30.8429   39.4285   61.9496 O   0  0  0  0  0  0  0  0  0  0  0  0
   30.8076   38.0324   61.6871 S   0  0  0  0  0  0  0  0  0  0  0  0
   29.5992   37.2989   61.5429 O   0  0  0  0  0  0  0  0  0  0  0  0
   31.7217   37.7821   60.2017 C   0  0  0  0  0  0  0  0  0  0  0  0
   32.3472   38.8299   59.5985 C   0  0  0  0  0  0  0  0  0  0  0  0
   33.0742   38.6513   58.4233 C   0  0  0  0  0  0  0  0  0  0  0  0
   33.1802   37.4239   57.8443 C   0  0  0  0  0  0  0  0  0  0  0  0
   32.5481   36.3183   58.4380 C   0  0  0  0  0  0  0  0  0  0  0  0
   32.6352   35.0357   57.8700 C   0  0  0  0  0  0  0  0  0  0  0  0
   32.0102   33.9882   58.4737 C   0  0  0  0  0  0  0  0  0  0  0  0
   31.2831   34.1669   59.6492 C   0  0  0  0  0  0  0  0  0  0  0  0
   31.1768   35.3942   60.2278 C   0  0  0  0  0  0  0  0  0  0  0  0
   31.8086   36.5001   59.6335 C   0  0  0  0  0  0  0  0  0  0  0  0
   31.6529   37.3050   62.9114 N   0  0  0  0  0  0  0  0  0  0  0  0
   32.7667   36.5356   62.7758 C   0  0  0  0  0  0  0  0  0  0  0  0
   33.1731   36.1281   63.9426 N   0  0  0  0  0  0  0  0  0  0  0  0
   32.3414   36.6004   64.9064 C   0  0  0  0  0  0  0  0  0  0  0  0
   32.3053   36.4696   66.2971 C   0  0  0  0  0  0  0  0  0  0  0  0
   31.3149   37.0803   67.0129 C   0  0  0  0  0  0  0  0  0  0  0  0
   30.3399   37.8322   66.3730 C   0  0  0  0  0  0  0  0  0  0  0  0
   30.3556   37.9753   65.0019 C   0  0  0  0  0  0  0  0  0  0  0  0
   31.3546   37.3620   64.2580 C   0  0  0  0  0  0  0  0  0  0  0  0
   32.2792   39.8143   60.0374 H   0  0  0  0  0  0  0  0  0  0  0  0
   33.5613   39.4994   57.9651 H   0  0  0  0  0  0  0  0  0  0  0  0
   33.7507   37.2998   56.9357 H   0  0  0  0  0  0  0  0  0  0  0  0
   33.1952   34.8821   56.9594 H   0  0  0  0  0  0  0  0  0  0  0  0
   32.0785   33.0037   58.0350 H   0  0  0  0  0  0  0  0  0  0  0  0
   30.7969   33.3187   60.1081 H   0  0  0  0  0  0  0  0  0  0  0  0
   30.6097   35.5176   61.1385 H   0  0  0  0  0  0  0  0  0  0  0  0
   33.2452   36.2998   61.8368 H   0  0  0  0  0  0  0  0  0  0  0  0
   33.0589   35.8860   66.8053 H   0  0  0  0  0  0  0  0  0  0  0  0
   31.2905   36.9767   68.0876 H   0  0  0  0  0  0  0  0  0  0  0  0
   29.5633   38.3086   66.9530 H   0  0  0  0  0  0  0  0  0  0  0  0
   29.5947   38.5619   64.5089 H   0  0  0  0  0  0  0  0  0  0  0  0
  1  2  2  0  0  0  0
  2  3  2  0  0  0  0
  2  4  1  0  0  0  0
  2 14  1  0  0  0  0
  4 13  2  0  0  0  0
  4  5  1  0  0  0  0
  5  6  2  0  0  0  0
  5 23  1  0  0  0  0
  6  7  1  0  0  0  0
  6 24  1  0  0  0  0
  7  8  2  0  0  0  0
  7 25  1  0  0  0  0
  8 13  1  0  0  0  0
  8  9  1  0  0  0  0
  9 10  2  0  0  0  0
  9 26  1  0  0  0  0
 10 11  1  0  0  0  0
 10 27  1  0  0  0  0
 11 12  2  0  0  0  0
 11 28  1  0  0  0  0
 12 13  1  0  0  0  0
 12 29  1  0  0  0  0
 14 22  1  0  0  0  0
 14 15  1  0  0  0  0
 15 16  2  0  0  0  0
 15 30  1  0  0  0  0
 16 17  1  0  0  0  0
 17 22  2  0  0  0  0
 17 18  1  0  0  0  0
 18 19  2  0  0  0  0
 18 31  1  0  0  0  0
 19 20  1  0  0  0  0
 19 32  1  0  0  0  0
 20 21  2  0  0  0  0
 20 33  1  0  0  0  0
 21 22  1  0  0  0  0
 21 34  1  0  0  0  0
M  END
$$$$
