ZINC000000014988      none
 OpenBabel11202420153D

 28 29  0  0  0  0  0  0  0  0999 V2000
   30.4233   33.4372   63.6476 O   0  0  0  0  0  0  0  0  0  0  0  0
   30.9336   33.9615   62.5019 C   0  0  0  0  0  0  0  0  0  0  0  0
   31.8793   33.2508   61.7770 C   0  0  0  0  0  0  0  0  0  0  0  0
   32.4004   33.7778   60.6142 C   0  0  0  0  0  0  0  0  0  0  0  0
   31.9756   35.0308   60.1634 C   0  0  0  0  0  0  0  0  0  0  0  0
   32.5312   35.5962   58.9214 C   0  0  0  0  0  0  0  0  0  0  0  0
   32.4523   36.9167   58.6908 C   0  0  0  0  0  0  0  0  0  0  0  0
   33.0081   37.4824   57.4485 C   0  0  0  0  0  0  0  0  0  0  0  0
   33.2329   36.6596   56.3416 C   0  0  0  0  0  0  0  0  0  0  0  0
   33.7478   37.1971   55.1805 C   0  0  0  0  0  0  0  0  0  0  0  0
   34.0524   38.5454   55.1138 C   0  0  0  0  0  0  0  0  0  0  0  0
   33.8377   39.3652   56.2078 C   0  0  0  0  0  0  0  0  0  0  0  0
   33.3180   38.8429   57.3738 C   0  0  0  0  0  0  0  0  0  0  0  0
   31.0229   35.7462   60.8941 C   0  0  0  0  0  0  0  0  0  0  0  0
   30.5098   35.2137   62.0619 C   0  0  0  0  0  0  0  0  0  0  0  0
   29.5868   35.9096   62.7783 O   0  0  0  0  0  0  0  0  0  0  0  0
   29.7750   34.0054   64.0855 H   0  0  0  0  0  0  0  0  0  0  0  0
   32.2079   32.2824   62.1242 H   0  0  0  0  0  0  0  0  0  0  0  0
   33.1361   33.2223   60.0516 H   0  0  0  0  0  0  0  0  0  0  0  0
   33.0019   34.9486   58.1965 H   0  0  0  0  0  0  0  0  0  0  0  0
   31.9817   37.5643   59.4158 H   0  0  0  0  0  0  0  0  0  0  0  0
   33.0002   35.6063   56.3938 H   0  0  0  0  0  0  0  0  0  0  0  0
   33.9180   36.5634   54.3228 H   0  0  0  0  0  0  0  0  0  0  0  0
   34.4592   38.9600   54.2033 H   0  0  0  0  0  0  0  0  0  0  0  0
   34.0775   40.4165   56.1484 H   0  0  0  0  0  0  0  0  0  0  0  0
   33.1507   39.4839   58.2267 H   0  0  0  0  0  0  0  0  0  0  0  0
   30.6919   36.7148   60.5496 H   0  0  0  0  0  0  0  0  0  0  0  0
   29.3557   36.7665   62.3948 H   0  0  0  0  0  0  0  0  0  0  0  0
  1  2  1  0  0  0  0
  1 17  1  0  0  0  0
  2 15  2  0  0  0  0
  2  3  1  0  0  0  0
  3  4  2  0  0  0  0
  3 18  1  0  0  0  0
  4  5  1  0  0  0  0
  4 19  1  0  0  0  0
  5  6  1  0  0  0  0
  5 14  2  0  0  0  0
  6  7  2  0  0  0  0
  6 20  1  0  0  0  0
  7  8  1  0  0  0  0
  7 21  1  0  0  0  0
  8 13  2  0  0  0  0
  8  9  1  0  0  0  0
  9 10  2  0  0  0  0
  9 22  1  0  0  0  0
 10 11  1  0  0  0  0
 10 23  1  0  0  0  0
 11 12  2  0  0  0  0
 11 24  1  0  0  0  0
 12 13  1  0  0  0  0
 12 25  1  0  0  0  0
 13 26  1  0  0  0  0
 14 15  1  0  0  0  0
 14 27  1  0  0  0  0
 15 16  1  0  0  0  0
 16 28  1  0  0  0  0
M  END
$$$$
