ZINC000000036282      none
 OpenBabel11202420153D

 38 40  0  0  0  0  0  0  0  0999 V2000
   33.7110   39.5963   56.7839 C   0  0  0  0  0  0  0  0  0  0  0  0
   33.6835   38.2299   56.1490 C   0  0  0  0  0  0  0  0  0  0  0  0
   34.0549   38.0548   54.8555 C   0  0  0  0  0  0  0  0  0  0  0  0
   34.0205   36.7641   54.2846 C   0  0  0  0  0  0  0  0  0  0  0  0
   34.3567   36.6201   53.1230 O   0  0  0  0  0  0  0  0  0  0  0  0
   33.6272   35.6921   54.9890 O   0  0  0  0  0  0  0  0  0  0  0  0
   33.2451   35.7976   56.2804 C   0  0  0  0  0  0  0  0  0  0  0  0
   32.8415   34.6759   56.9936 C   0  0  0  0  0  0  0  0  0  0  0  0
   32.4545   34.7981   58.3108 C   0  0  0  0  0  0  0  0  0  0  0  0
   32.4625   36.0401   58.9399 C   0  0  0  0  0  0  0  0  0  0  0  0
   32.0769   36.1436   60.2396 O   0  0  0  0  0  0  0  0  0  0  0  0
   31.1050   35.2048   60.7047 C   0  0  0  0  0  0  0  0  0  0  0  0
   30.8035   35.4717   62.1567 C   0  0  0  0  0  0  0  0  0  0  0  0
   30.8949   36.6736   62.6260 N   0  0  0  0  0  0  0  0  0  0  0  0
   30.7403   36.9054   64.0143 O   0  0  0  0  0  0  0  0  0  0  0  0
   30.4037   34.3616   63.0438 C   0  0  0  0  0  0  0  0  0  0  0  0
   29.5559   34.6005   64.1273 C   0  0  0  0  0  0  0  0  0  0  0  0
   29.1856   33.5589   64.9521 C   0  0  0  0  0  0  0  0  0  0  0  0
   29.6570   32.2793   64.7107 C   0  0  0  0  0  0  0  0  0  0  0  0
   29.1922   30.9750   65.7576 Cl  0  0  0  0  0  0  0  0  0  0  0  0
   30.4940   32.0352   63.6346 C   0  0  0  0  0  0  0  0  0  0  0  0
   30.8713   33.0683   62.8026 C   0  0  0  0  0  0  0  0  0  0  0  0
   32.8552   37.1681   58.2468 C   0  0  0  0  0  0  0  0  0  0  0  0
   33.2551   37.0534   56.9119 C   0  0  0  0  0  0  0  0  0  0  0  0
   32.7478   40.0847   56.6369 H   0  0  0  0  0  0  0  0  0  0  0  0
   33.9090   39.4970   57.8512 H   0  0  0  0  0  0  0  0  0  0  0  0
   34.4963   40.1954   56.3229 H   0  0  0  0  0  0  0  0  0  0  0  0
   34.3762   38.9000   54.2650 H   0  0  0  0  0  0  0  0  0  0  0  0
   32.8313   33.7074   56.5158 H   0  0  0  0  0  0  0  0  0  0  0  0
   32.1418   33.9223   58.8598 H   0  0  0  0  0  0  0  0  0  0  0  0
   31.4954   34.1931   60.5947 H   0  0  0  0  0  0  0  0  0  0  0  0
   30.1915   35.3073   60.1191 H   0  0  0  0  0  0  0  0  0  0  0  0
   30.8251   37.8340   64.2699 H   0  0  0  0  0  0  0  0  0  0  0  0
   29.1911   35.5987   64.3192 H   0  0  0  0  0  0  0  0  0  0  0  0
   28.5301   33.7425   65.7905 H   0  0  0  0  0  0  0  0  0  0  0  0
   30.8550   31.0343   63.4490 H   0  0  0  0  0  0  0  0  0  0  0  0
   31.5277   32.8774   61.9663 H   0  0  0  0  0  0  0  0  0  0  0  0
   32.8571   38.1321   58.7338 H   0  0  0  0  0  0  0  0  0  0  0  0
  1  2  1  0  0  0  0
  1 25  1  0  0  0  0
  1 26  1  0  0  0  0
  1 27  1  0  0  0  0
  2 24  1  0  0  0  0
  2  3  2  0  0  0  0
  3  4  1  0  0  0  0
  3 28  1  0  0  0  0
  4  5  2  0  0  0  0
  4  6  1  0  0  0  0
  6  7  1  0  0  0  0
  7 24  2  0  0  0  0
  7  8  1  0  0  0  0
  8  9  2  0  0  0  0
  8 29  1  0  0  0  0
  9 10  1  0  0  0  0
  9 30  1  0  0  0  0
 10 11  1  0  0  0  0
 10 23  2  0  0  0  0
 11 12  1  0  0  0  0
 12 13  1  0  0  0  0
 12 31  1  0  0  0  0
 12 32  1  0  0  0  0
 13 14  2  0  0  0  0
 13 16  1  0  0  0  0
 14 15  1  0  0  0  0
 15 33  1  0  0  0  0
 16 22  2  0  0  0  0
 16 17  1  0  0  0  0
 17 18  2  0  0  0  0
 17 34  1  0  0  0  0
 18 19  1  0  0  0  0
 18 35  1  0  0  0  0
 19 20  1  0  0  0  0
 19 21  2  0  0  0  0
 21 22  1  0  0  0  0
 21 36  1  0  0  0  0
 22 37  1  0  0  0  0
 23 24  1  0  0  0  0
 23 38  1  0  0  0  0
M  END
$$$$
