ZINC000000045498      none
 OpenBabel11202420153D

 30 32  0  0  0  0  0  0  0  0999 V2000
   30.0873   33.4261   64.1908 Cl  0  0  0  0  0  0  0  0  0  0  0  0
   30.7156   34.0160   62.6839 C   0  0  0  0  0  0  0  0  0  0  0  0
   31.4594   33.1781   61.8709 C   0  0  0  0  0  0  0  0  0  0  0  0
   31.9608   33.6420   60.6721 C   0  0  0  0  0  0  0  0  0  0  0  0
   31.7179   34.9571   60.2794 C   0  0  0  0  0  0  0  0  0  0  0  0
   32.2553   35.4605   58.9913 C   0  0  0  0  0  0  0  0  0  0  0  0
   32.4517   34.6531   57.9254 C   0  0  0  0  0  0  0  0  0  0  0  0
   33.0735   35.5790   56.6288 S   0  0  0  0  0  0  0  0  0  0  0  0
   33.0394   37.0282   57.6276 C   0  0  0  0  0  0  0  0  0  0  0  0
   33.4319   38.2705   57.2291 N   0  0  0  0  0  0  0  0  0  0  0  0
   33.8560   38.4472   56.0773 N   0  0  0  0  0  0  0  0  0  0  0  0
   34.2780   39.7832   55.6491 C   0  0  0  0  0  0  0  0  0  0  0  0
   34.7474   39.7269   54.2182 C   0  0  0  0  0  0  0  0  0  0  0  0
   34.7735   38.6289   53.4414 C   0  0  0  0  0  0  0  0  0  0  0  0
   35.2820   39.0286   52.1843 C   0  0  0  0  0  0  0  0  0  0  0  0
   35.5362   40.3470   52.2679 C   0  0  0  0  0  0  0  0  0  0  0  0
   35.2049   40.7656   53.5003 O   0  0  0  0  0  0  0  0  0  0  0  0
   32.5791   36.7240   58.8092 N   0  0  0  0  0  0  0  0  0  0  0  0
   30.9691   35.7977   61.1004 C   0  0  0  0  0  0  0  0  0  0  0  0
   30.4715   35.3242   62.2989 C   0  0  0  0  0  0  0  0  0  0  0  0
   29.5384   36.3697   63.3236 Cl  0  0  0  0  0  0  0  0  0  0  0  0
   31.6474   32.1591   62.1755 H   0  0  0  0  0  0  0  0  0  0  0  0
   32.5403   32.9869   60.0385 H   0  0  0  0  0  0  0  0  0  0  0  0
   32.2467   33.5931   57.8965 H   0  0  0  0  0  0  0  0  0  0  0  0
   33.4376   40.4727   55.7290 H   0  0  0  0  0  0  0  0  0  0  0  0
   35.0929   40.1282   56.2855 H   0  0  0  0  0  0  0  0  0  0  0  0
   34.4647   37.6333   53.7239 H   0  0  0  0  0  0  0  0  0  0  0  0
   35.4370   38.3967   51.3223 H   0  0  0  0  0  0  0  0  0  0  0  0
   35.9342   40.9649   51.4766 H   0  0  0  0  0  0  0  0  0  0  0  0
   30.7821   36.8188   60.8026 H   0  0  0  0  0  0  0  0  0  0  0  0
  1  2  1  0  0  0  0
  2 20  2  0  0  0  0
  2  3  1  0  0  0  0
  3  4  2  0  0  0  0
  3 22  1  0  0  0  0
  4  5  1  0  0  0  0
  4 23  1  0  0  0  0
  5  6  1  0  0  0  0
  5 19  2  0  0  0  0
  6 18  1  0  0  0  0
  6  7  2  0  0  0  0
  7  8  1  0  0  0  0
  7 24  1  0  0  0  0
  8  9  1  0  0  0  0
  9 10  1  0  0  0  0
  9 18  2  0  0  0  0
 10 11  2  0  0  0  0
 11 12  1  0  0  0  0
 12 13  1  0  0  0  0
 12 25  1  0  0  0  0
 12 26  1  0  0  0  0
 13 17  1  0  0  0  0
 13 14  2  0  0  0  0
 14 15  1  0  0  0  0
 14 27  1  0  0  0  0
 15 16  2  0  0  0  0
 15 28  1  0  0  0  0
 16 17  1  0  0  0  0
 16 29  1  0  0  0  0
 19 20  1  0  0  0  0
 19 30  1  0  0  0  0
 20 21  1  0  0  0  0
M  END
$$$$
