ZINC000000033671      none
 OpenBabel11202420153D

 43 45  0  0  0  0  0  0  0  0999 V2000
   33.4436   34.0492   57.0256 C   0  0  0  0  0  0  0  0  0  0  0  0
   32.2808   34.8758   57.1086 O   0  0  0  0  0  0  0  0  0  0  0  0
   32.0846   35.5500   58.2732 C   0  0  0  0  0  0  0  0  0  0  0  0
   31.3570   34.9677   59.2986 C   0  0  0  0  0  0  0  0  0  0  0  0
   31.1588   35.6544   60.4819 C   0  0  0  0  0  0  0  0  0  0  0  0
   31.6853   36.9221   60.6456 C   0  0  0  0  0  0  0  0  0  0  0  0
   31.4661   37.6661   61.9378 C   0  0  0  0  0  0  0  0  0  0  0  0
   30.1360   37.2320   62.5570 C   0  0  0  0  0  0  0  0  0  0  0  0
   29.9231   37.9553   63.8131 N   0  0  0  0  0  0  0  0  0  0  0  0
   30.3852   37.4208   64.9910 C   0  0  0  0  0  0  0  0  0  0  0  0
   30.1868   38.0891   66.1453 C   0  0  0  0  0  0  0  0  0  0  0  0
   29.5040   39.3297   66.1151 C   0  0  0  0  0  0  0  0  0  0  0  0
   29.2368   40.2015   67.5642 S   0  0  0  0  0  0  0  0  0  0  0  0
   29.0671   39.8199   64.9386 N   0  0  0  0  0  0  0  0  0  0  0  0
   28.5992   40.6692   64.9124 H   0  0  0  0  0  0  0  0  0  0  0  0
   29.2774   39.1344   63.7996 C   0  0  0  0  0  0  0  0  0  0  0  0
   28.8778   39.5873   62.7444 O   0  0  0  0  0  0  0  0  0  0  0  0
   30.7753   37.3195   67.3070 C   0  0  0  0  0  0  0  0  0  0  0  0
   30.9831   35.8856   66.7725 C   0  0  0  0  0  0  0  0  0  0  0  0
   31.1292   36.1286   65.2544 C   0  0  0  0  0  0  0  0  0  0  0  0
   32.4074   37.5112   59.6245 C   0  0  0  0  0  0  0  0  0  0  0  0
   32.6145   36.8261   58.4380 C   0  0  0  0  0  0  0  0  0  0  0  0
   33.3298   37.4018   57.4348 O   0  0  0  0  0  0  0  0  0  0  0  0
   32.6020   38.1814   56.4837 C   0  0  0  0  0  0  0  0  0  0  0  0
   33.4030   33.2860   57.8025 H   0  0  0  0  0  0  0  0  0  0  0  0
   33.4796   33.5702   56.0471 H   0  0  0  0  0  0  0  0  0  0  0  0
   34.3350   34.6612   57.1635 H   0  0  0  0  0  0  0  0  0  0  0  0
   30.9448   33.9774   59.1734 H   0  0  0  0  0  0  0  0  0  0  0  0
   30.5911   35.1995   61.2803 H   0  0  0  0  0  0  0  0  0  0  0  0
   31.4425   38.7378   61.7406 H   0  0  0  0  0  0  0  0  0  0  0  0
   32.2789   37.4416   62.6286 H   0  0  0  0  0  0  0  0  0  0  0  0
   30.1596   36.1604   62.7543 H   0  0  0  0  0  0  0  0  0  0  0  0
   29.3233   37.4566   61.8662 H   0  0  0  0  0  0  0  0  0  0  0  0
   30.0815   37.3135   68.1477 H   0  0  0  0  0  0  0  0  0  0  0  0
   31.7292   37.7546   67.6052 H   0  0  0  0  0  0  0  0  0  0  0  0
   31.8899   35.4435   67.1853 H   0  0  0  0  0  0  0  0  0  0  0  0
   30.1157   35.2609   66.9853 H   0  0  0  0  0  0  0  0  0  0  0  0
   32.1806   36.2360   64.9875 H   0  0  0  0  0  0  0  0  0  0  0  0
   30.6773   35.3098   64.6946 H   0  0  0  0  0  0  0  0  0  0  0  0
   32.8135   38.5036   59.7532 H   0  0  0  0  0  0  0  0  0  0  0  0
   31.8597   37.5534   55.9910 H   0  0  0  0  0  0  0  0  0  0  0  0
   32.1008   39.0032   56.9949 H   0  0  0  0  0  0  0  0  0  0  0  0
   33.2902   38.5822   55.7396 H   0  0  0  0  0  0  0  0  0  0  0  0
  1  2  1  0  0  0  0
  1 25  1  0  0  0  0
  1 26  1  0  0  0  0
  1 27  1  0  0  0  0
  2  3  1  0  0  0  0
  3 22  2  0  0  0  0
  3  4  1  0  0  0  0
  4  5  2  0  0  0  0
  4 28  1  0  0  0  0
  5  6  1  0  0  0  0
  5 29  1  0  0  0  0
  6  7  1  0  0  0  0
  6 21  2  0  0  0  0
  7  8  1  0  0  0  0
  7 30  1  0  0  0  0
  7 31  1  0  0  0  0
  8  9  1  0  0  0  0
  8 32  1  0  0  0  0
  8 33  1  0  0  0  0
  9 16  1  0  0  0  0
  9 10  1  0  0  0  0
 10 20  1  0  0  0  0
 10 11  2  0  0  0  0
 11 12  1  0  0  0  0
 11 18  1  0  0  0  0
 12 13  2  0  0  0  0
 12 14  1  0  0  0  0
 14 15  1  0  0  0  0
 14 16  1  0  0  0  0
 16 17  2  0  0  0  0
 18 19  1  0  0  0  0
 18 34  1  0  0  0  0
 18 35  1  0  0  0  0
 19 20  1  0  0  0  0
 19 36  1  0  0  0  0
 19 37  1  0  0  0  0
 20 38  1  0  0  0  0
 20 39  1  0  0  0  0
 21 22  1  0  0  0  0
 21 40  1  0  0  0  0
 22 23  1  0  0  0  0
 23 24  1  0  0  0  0
 24 41  1  0  0  0  0
 24 42  1  0  0  0  0
 24 43  1  0  0  0  0
M  END
$$$$
