ZINC000000030430      none
 OpenBabel11202420163D

 38 39  0  0  1  0  0  0  0  0999 V2000
   32.5306   37.9950   69.8839 N   0  0  0  0  0  0  0  0  0  0  0  0
   31.5718   37.6297   69.3965 C   0  0  0  0  0  0  0  0  0  0  0  0
   30.3292   37.1564   68.7650 C   0  0  0  0  0  0  0  0  0  0  0  0
   30.6189   36.6884   67.4073 N   0  0  0  0  0  0  0  0  0  0  0  0
   31.5638   35.5887   67.1978 C   0  0  0  0  0  0  0  0  0  0  0  0
   31.0780   34.3854   67.8925 C   0  0  0  0  0  0  0  0  0  0  0  0
   30.7032   33.4565   68.4287 N   0  0  0  0  0  0  0  0  0  0  0  0
   30.0164   37.2697   66.3512 C   0  0  0  0  0  0  0  0  0  0  0  0
   29.2342   38.1802   66.5247 O   0  0  0  0  0  0  0  0  0  0  0  0
   30.3145   36.7884   64.9546 C   0  0  2  0  0  0  0  0  0  0  0  0
   31.3783   36.9067   64.7489 H   0  0  0  0  0  0  0  0  0  0  0  0
   29.3557   37.7622   63.7618 S   0  0  0  0  0  0  0  0  0  0  0  0
   30.2268   37.5083   62.2515 C   0  0  0  0  0  0  0  0  0  0  0  0
   31.5592   37.8883   62.1435 C   0  0  0  0  0  0  0  0  0  0  0  0
   32.2386   37.6882   60.9581 C   0  0  0  0  0  0  0  0  0  0  0  0
   31.5946   37.1103   59.8791 C   0  0  0  0  0  0  0  0  0  0  0  0
   30.2671   36.7360   59.9812 C   0  0  0  0  0  0  0  0  0  0  0  0
   29.5830   36.9278   61.1652 C   0  0  0  0  0  0  0  0  0  0  0  0
   29.9382   35.3341   64.8336 C   0  0  0  0  0  0  0  0  0  0  0  0
   30.6223   34.5137   63.9562 C   0  0  0  0  0  0  0  0  0  0  0  0
   30.2801   33.1787   63.8484 C   0  0  0  0  0  0  0  0  0  0  0  0
   29.2477   32.6661   64.6114 C   0  0  0  0  0  0  0  0  0  0  0  0
   28.5600   33.4877   65.4850 C   0  0  0  0  0  0  0  0  0  0  0  0
   28.9051   34.8217   65.5960 C   0  0  0  0  0  0  0  0  0  0  0  0
   29.6094   37.9738   68.7218 H   0  0  0  0  0  0  0  0  0  0  0  0
   29.9133   36.3366   69.3509 H   0  0  0  0  0  0  0  0  0  0  0  0
   31.6504   35.3823   66.1310 H   0  0  0  0  0  0  0  0  0  0  0  0
   32.5400   35.8679   67.5942 H   0  0  0  0  0  0  0  0  0  0  0  0
   32.0628   38.3394   62.9857 H   0  0  0  0  0  0  0  0  0  0  0  0
   33.2741   37.9829   60.8736 H   0  0  0  0  0  0  0  0  0  0  0  0
   32.1285   36.9549   58.9532 H   0  0  0  0  0  0  0  0  0  0  0  0
   29.7662   36.2891   59.1351 H   0  0  0  0  0  0  0  0  0  0  0  0
   28.5477   36.6314   61.2455 H   0  0  0  0  0  0  0  0  0  0  0  0
   31.4265   34.9151   63.3573 H   0  0  0  0  0  0  0  0  0  0  0  0
   30.8175   32.5370   63.1661 H   0  0  0  0  0  0  0  0  0  0  0  0
   28.9785   31.6238   64.5253 H   0  0  0  0  0  0  0  0  0  0  0  0
   27.7535   33.0873   66.0812 H   0  0  0  0  0  0  0  0  0  0  0  0
   28.3680   35.4635   66.2785 H   0  0  0  0  0  0  0  0  0  0  0  0
  1  2  3  0  0  0  0
  2  3  1  0  0  0  0
  3  4  1  0  0  0  0
  3 25  1  0  0  0  0
  3 26  1  0  0  0  0
  4  5  1  0  0  0  0
  4  8  1  0  0  0  0
  5  6  1  0  0  0  0
  5 27  1  0  0  0  0
  5 28  1  0  0  0  0
  6  7  3  0  0  0  0
  8  9  2  0  0  0  0
  8 10  1  0  0  0  0
 10 11  1  6  0  0  0
 10 12  1  0  0  0  0
 10 19  1  0  0  0  0
 12 13  1  0  0  0  0
 13 18  2  0  0  0  0
 13 14  1  0  0  0  0
 14 15  2  0  0  0  0
 14 29  1  0  0  0  0
 15 16  1  0  0  0  0
 15 30  1  0  0  0  0
 16 17  2  0  0  0  0
 16 31  1  0  0  0  0
 17 18  1  0  0  0  0
 17 32  1  0  0  0  0
 18 33  1  0  0  0  0
 19 24  2  0  0  0  0
 19 20  1  0  0  0  0
 20 21  2  0  0  0  0
 20 34  1  0  0  0  0
 21 22  1  0  0  0  0
 21 35  1  0  0  0  0
 22 23  2  0  0  0  0
 22 36  1  0  0  0  0
 23 24  1  0  0  0  0
 23 37  1  0  0  0  0
 24 38  1  0  0  0  0
M  END
$$$$
