ZINC000000021240      none
 OpenBabel11202420153D

 25 26  0  0  0  0  0  0  0  0999 V2000
   35.5004   32.9894   55.4307 C   0  0  0  0  0  0  0  0  0  0  0  0
   34.0117   32.6425   55.4971 C   0  0  0  0  0  0  0  0  0  0  0  0
   33.2603   33.6300   54.7884 O   0  0  0  0  0  0  0  0  0  0  0  0
   33.3561   34.9066   55.2270 C   0  0  0  0  0  0  0  0  0  0  0  0
   33.8246   35.8633   54.3994 C   0  0  0  0  0  0  0  0  0  0  0  0
   33.9404   37.2547   54.8455 C   0  0  0  0  0  0  0  0  0  0  0  0
   34.3652   38.1039   54.0859 O   0  0  0  0  0  0  0  0  0  0  0  0
   33.5403   37.6252   56.2218 C   0  0  0  0  0  0  0  0  0  0  0  0
   33.6432   38.9381   56.6630 C   0  0  0  0  0  0  0  0  0  0  0  0
   33.2630   39.2623   57.9564 C   0  0  0  0  0  0  0  0  0  0  0  0
   32.7824   38.2881   58.8102 C   0  0  0  0  0  0  0  0  0  0  0  0
   32.6738   36.9735   58.3846 C   0  0  0  0  0  0  0  0  0  0  0  0
   33.0511   36.6336   57.0905 C   0  0  0  0  0  0  0  0  0  0  0  0
   32.9456   35.2387   56.6120 C   0  0  0  0  0  0  0  0  0  0  0  0
   32.5299   34.3694   57.3508 O   0  0  0  0  0  0  0  0  0  0  0  0
   35.6661   33.9667   55.8840 H   0  0  0  0  0  0  0  0  0  0  0  0
   36.0734   32.2361   55.9713 H   0  0  0  0  0  0  0  0  0  0  0  0
   35.8220   33.0126   54.3896 H   0  0  0  0  0  0  0  0  0  0  0  0
   33.6901   32.6191   56.5383 H   0  0  0  0  0  0  0  0  0  0  0  0
   33.8458   31.6651   55.0437 H   0  0  0  0  0  0  0  0  0  0  0  0
   34.1187   35.6002   53.3940 H   0  0  0  0  0  0  0  0  0  0  0  0
   34.0184   39.7041   56.0006 H   0  0  0  0  0  0  0  0  0  0  0  0
   33.3436   40.2833   58.2990 H   0  0  0  0  0  0  0  0  0  0  0  0
   32.4890   38.5527   59.8153 H   0  0  0  0  0  0  0  0  0  0  0  0
   32.2970   36.2160   59.0560 H   0  0  0  0  0  0  0  0  0  0  0  0
  1  2  1  0  0  0  0
  1 16  1  0  0  0  0
  1 17  1  0  0  0  0
  1 18  1  0  0  0  0
  2  3  1  0  0  0  0
  2 19  1  0  0  0  0
  2 20  1  0  0  0  0
  3  4  1  0  0  0  0
  4 14  1  0  0  0  0
  4  5  2  0  0  0  0
  5  6  1  0  0  0  0
  5 21  1  0  0  0  0
  6  7  2  0  0  0  0
  6  8  1  0  0  0  0
  8 13  2  0  0  0  0
  8  9  1  0  0  0  0
  9 10  2  0  0  0  0
  9 22  1  0  0  0  0
 10 11  1  0  0  0  0
 10 23  1  0  0  0  0
 11 12  2  0  0  0  0
 11 24  1  0  0  0  0
 12 13  1  0  0  0  0
 12 25  1  0  0  0  0
 13 14  1  0  0  0  0
 14 15  2  0  0  0  0
M  END
$$$$
