ZINC000000039617      none
 OpenBabel11202420153D

 23 24  0  0  1  0  0  0  0  0999 V2000
   33.6480   35.6204   55.6700 C   0  0  0  0  0  0  0  0  0  0  0  0
   33.0012   36.9849   55.9167 C   0  0  2  0  0  0  0  0  0  0  0  0
   32.0373   37.0411   55.4108 H   0  0  0  0  0  0  0  0  0  0  0  0
   33.8937   38.0673   55.4421 N   0  0  0  0  0  0  0  0  0  0  0  0
   33.6502   39.1734   56.3941 C   0  0  0  0  0  0  0  0  0  0  0  0
   33.2081   38.5172   57.6790 C   0  0  0  0  0  0  0  0  0  0  0  0
   33.1332   38.9691   58.9950 C   0  0  0  0  0  0  0  0  0  0  0  0
   33.5063   40.2636   59.3183 N   0  0  0  0  0  0  0  0  0  0  0  0
   32.6975   38.1352   59.9354 N   0  0  0  0  0  0  0  0  0  0  0  0
   32.3411   36.8973   59.6266 C   0  0  0  0  0  0  0  0  0  0  0  0
   31.8926   36.0556   60.6296 N   0  0  0  0  0  0  0  0  0  0  0  0
   32.4027   36.4429   58.3830 N   0  0  0  0  0  0  0  0  0  0  0  0
   32.8269   37.2192   57.3986 C   0  0  0  0  0  0  0  0  0  0  0  0
   33.0123   34.8371   56.0826 H   0  0  0  0  0  0  0  0  0  0  0  0
   33.7681   35.4638   54.5980 H   0  0  0  0  0  0  0  0  0  0  0  0
   34.6243   35.5884   56.1535 H   0  0  0  0  0  0  0  0  0  0  0  0
   34.8598   37.7775   55.4697 H   0  0  0  0  0  0  0  0  0  0  0  0
   32.8648   39.8275   56.0156 H   0  0  0  0  0  0  0  0  0  0  0  0
   34.5671   39.7399   56.5567 H   0  0  0  0  0  0  0  0  0  0  0  0
   33.8231   40.8642   58.6257 H   0  0  0  0  0  0  0  0  0  0  0  0
   33.4507   40.5691   60.2372 H   0  0  0  0  0  0  0  0  0  0  0  0
   31.8427   36.3746   61.5443 H   0  0  0  0  0  0  0  0  0  0  0  0
   31.6284   35.1466   60.4179 H   0  0  0  0  0  0  0  0  0  0  0  0
  1  2  1  0  0  0  0
  1 14  1  0  0  0  0
  1 15  1  0  0  0  0
  1 16  1  0  0  0  0
  2  3  1  6  0  0  0
  2 13  1  0  0  0  0
  2  4  1  0  0  0  0
  4  5  1  0  0  0  0
  4 17  1  0  0  0  0
  5  6  1  0  0  0  0
  5 18  1  0  0  0  0
  5 19  1  0  0  0  0
  6 13  2  0  0  0  0
  6  7  1  0  0  0  0
  7  8  1  0  0  0  0
  7  9  2  0  0  0  0
  8 20  1  0  0  0  0
  8 21  1  0  0  0  0
  9 10  1  0  0  0  0
 10 11  1  0  0  0  0
 10 12  2  0  0  0  0
 11 22  1  0  0  0  0
 11 23  1  0  0  0  0
 12 13  1  0  0  0  0
M  END
$$$$
