ZINC000000022966      none
 OpenBabel11202420153D

 34 36  0  0  0  0  0  0  0  0999 V2000
   32.5105   35.7133   54.4305 C   0  0  0  0  0  0  0  0  0  0  0  0
   33.5193   35.6849   55.4422 O   0  0  0  0  0  0  0  0  0  0  0  0
   33.1222   35.9337   56.7144 C   0  0  0  0  0  0  0  0  0  0  0  0
   32.7219   34.8915   57.5219 C   0  0  0  0  0  0  0  0  0  0  0  0
   32.3086   35.0998   58.8272 C   0  0  0  0  0  0  0  0  0  0  0  0
   32.2854   36.3820   59.3657 C   0  0  0  0  0  0  0  0  0  0  0  0
   31.8468   36.6036   60.7530 C   0  0  0  0  0  0  0  0  0  0  0  0
   32.4419   36.0724   61.6712 O   0  0  0  0  0  0  0  0  0  0  0  0
   30.7856   37.3950   61.0059 N   0  0  0  0  0  0  0  0  0  0  0  0
   30.3701   37.6051   62.3202 C   0  0  0  0  0  0  0  0  0  0  0  0
   30.3501   38.8872   62.8678 C   0  0  0  0  0  0  0  0  0  0  0  0
   29.9280   39.0531   64.1705 C   0  0  0  0  0  0  0  0  0  0  0  0
   29.5559   38.0176   64.8982 N   0  0  0  0  0  0  0  0  0  0  0  0
   29.5657   36.7879   64.4180 C   0  0  0  0  0  0  0  0  0  0  0  0
   29.9693   36.5379   63.1230 C   0  0  0  0  0  0  0  0  0  0  0  0
   32.7044   37.5049   58.5307 C   0  0  0  0  0  0  0  0  0  0  0  0
   32.7032   38.8212   59.0169 C   0  0  0  0  0  0  0  0  0  0  0  0
   33.1095   39.8193   58.1751 C   0  0  0  0  0  0  0  0  0  0  0  0
   33.5084   39.5109   56.8766 C   0  0  0  0  0  0  0  0  0  0  0  0
   33.5122   38.2779   56.4312 N   0  0  0  0  0  0  0  0  0  0  0  0
   33.1215   37.2598   57.2021 C   0  0  0  0  0  0  0  0  0  0  0  0
   31.7520   34.9629   54.6525 H   0  0  0  0  0  0  0  0  0  0  0  0
   32.0489   36.7004   54.4054 H   0  0  0  0  0  0  0  0  0  0  0  0
   32.9616   35.4985   53.4616 H   0  0  0  0  0  0  0  0  0  0  0  0
   32.7310   33.8864   57.1269 H   0  0  0  0  0  0  0  0  0  0  0  0
   32.0021   34.2594   59.4322 H   0  0  0  0  0  0  0  0  0  0  0  0
   30.3110   37.8187   60.2735 H   0  0  0  0  0  0  0  0  0  0  0  0
   30.6575   39.7388   62.2790 H   0  0  0  0  0  0  0  0  0  0  0  0
   29.9057   40.0430   64.6016 H   0  0  0  0  0  0  0  0  0  0  0  0
   29.2539   35.9672   65.0471 H   0  0  0  0  0  0  0  0  0  0  0  0
   29.9751   35.5294   62.7362 H   0  0  0  0  0  0  0  0  0  0  0  0
   32.3898   39.0398   60.0270 H   0  0  0  0  0  0  0  0  0  0  0  0
   33.1207   40.8441   58.5161 H   0  0  0  0  0  0  0  0  0  0  0  0
   33.8269   40.3079   56.2211 H   0  0  0  0  0  0  0  0  0  0  0  0
  1  2  1  0  0  0  0
  1 22  1  0  0  0  0
  1 23  1  0  0  0  0
  1 24  1  0  0  0  0
  2  3  1  0  0  0  0
  3 21  2  0  0  0  0
  3  4  1  0  0  0  0
  4  5  2  0  0  0  0
  4 25  1  0  0  0  0
  5  6  1  0  0  0  0
  5 26  1  0  0  0  0
  6  7  1  0  0  0  0
  6 16  2  0  0  0  0
  7  8  2  0  0  0  0
  7  9  1  0  0  0  0
  9 10  1  0  0  0  0
  9 27  1  0  0  0  0
 10 15  2  0  0  0  0
 10 11  1  0  0  0  0
 11 12  2  0  0  0  0
 11 28  1  0  0  0  0
 12 13  1  0  0  0  0
 12 29  1  0  0  0  0
 13 14  2  0  0  0  0
 14 15  1  0  0  0  0
 14 30  1  0  0  0  0
 15 31  1  0  0  0  0
 16 21  1  0  0  0  0
 16 17  1  0  0  0  0
 17 18  2  0  0  0  0
 17 32  1  0  0  0  0
 18 19  1  0  0  0  0
 18 33  1  0  0  0  0
 19 20  2  0  0  0  0
 19 34  1  0  0  0  0
 20 21  1  0  0  0  0
M  END
$$$$
