ZINC000000041101      none
 OpenBabel11202420153D

 43 44  0  0  1  0  0  0  0  0999 V2000
   32.3978   43.8358   67.8599 C   0  0  0  0  0  0  0  0  0  0  0  0
   31.8249   42.4486   67.9954 C   0  0  0  0  0  0  0  0  0  0  0  0
   30.6353   42.2990   68.1784 O   0  0  0  0  0  0  0  0  0  0  0  0
   32.6345   41.3741   67.9133 N   0  0  0  0  0  0  0  0  0  0  0  0
   32.0774   40.0256   68.0449 C   0  0  0  0  0  0  0  0  0  0  0  0
   32.3579   39.2312   66.7676 C   0  0  2  0  0  0  0  0  0  0  0  0
   32.2763   38.1648   66.9778 H   0  0  0  0  0  0  0  0  0  0  0  0
   33.6768   39.5257   66.3033 O   0  0  0  0  0  0  0  0  0  0  0  0
   31.3404   39.6185   65.6925 C   0  0  1  0  0  0  0  0  0  0  0  0
   31.1597   40.6930   65.7238 H   0  0  0  0  0  0  0  0  0  0  0  0
   31.8317   39.2419   64.3983 O   0  0  0  0  0  0  0  0  0  0  0  0
   30.7048   38.8359   63.5988 C   0  0  1  0  0  0  0  0  0  0  0  0
   30.2154   39.6690   63.0944 H   0  0  0  0  0  0  0  0  0  0  0  0
   31.1324   37.7995   62.6956 O   0  0  0  0  0  0  0  0  0  0  0  0
   30.9222   36.5372   63.3798 C   0  0  0  0  0  0  0  0  0  0  0  0
   32.2515   35.7874   63.4884 C   0  0  0  0  0  0  0  0  0  0  0  0
   29.9191   35.6930   62.5911 C   0  0  0  0  0  0  0  0  0  0  0  0
   30.4059   36.7962   64.6949 O   0  0  0  0  0  0  0  0  0  0  0  0
   29.7758   38.0917   64.6074 C   0  0  1  0  0  0  0  0  0  0  0  0
   28.7285   38.0634   64.3071 H   0  0  0  0  0  0  0  0  0  0  0  0
   30.0214   38.8593   65.9232 C   0  0  2  0  0  0  0  0  0  0  0  0
   30.1238   38.1646   66.7568 H   0  0  0  0  0  0  0  0  0  0  0  0
   28.9281   39.8010   66.1763 N   0  0  0  0  0  0  0  0  0  0  0  0
   28.2191   39.7191   67.3196 C   0  0  0  0  0  0  0  0  0  0  0  0
   27.0945   40.6879   67.5800 C   0  0  0  0  0  0  0  0  0  0  0  0
   28.4863   38.8658   68.1389 O   0  0  0  0  0  0  0  0  0  0  0  0
   33.4744   43.7705   67.7015 H   0  0  0  0  0  0  0  0  0  0  0  0
   31.9355   44.3385   67.0103 H   0  0  0  0  0  0  0  0  0  0  0  0
   32.1982   44.4018   68.7697 H   0  0  0  0  0  0  0  0  0  0  0  0
   33.5858   41.4938   67.7670 H   0  0  0  0  0  0  0  0  0  0  0  0
   31.0010   40.0910   68.2030 H   0  0  0  0  0  0  0  0  0  0  0  0
   32.5397   39.5229   68.8943 H   0  0  0  0  0  0  0  0  0  0  0  0
   33.9232   39.0558   65.4948 H   0  0  0  0  0  0  0  0  0  0  0  0
   32.0942   34.8423   64.0081 H   0  0  0  0  0  0  0  0  0  0  0  0
   32.6411   35.5922   62.4892 H   0  0  0  0  0  0  0  0  0  0  0  0
   32.9662   36.3936   64.0449 H   0  0  0  0  0  0  0  0  0  0  0  0
   28.9754   36.2321   62.5096 H   0  0  0  0  0  0  0  0  0  0  0  0
   30.3134   35.4979   61.5938 H   0  0  0  0  0  0  0  0  0  0  0  0
   29.7542   34.7476   63.1079 H   0  0  0  0  0  0  0  0  0  0  0  0
   28.7143   40.4836   65.5210 H   0  0  0  0  0  0  0  0  0  0  0  0
   26.3428   40.5910   66.7966 H   0  0  0  0  0  0  0  0  0  0  0  0
   27.4853   41.7054   67.5848 H   0  0  0  0  0  0  0  0  0  0  0  0
   26.6420   40.4678   68.5470 H   0  0  0  0  0  0  0  0  0  0  0  0
  1  2  1  0  0  0  0
  1 27  1  0  0  0  0
  1 28  1  0  0  0  0
  1 29  1  0  0  0  0
  2  3  2  0  0  0  0
  2  4  1  0  0  0  0
  4  5  1  0  0  0  0
  4 30  1  0  0  0  0
  5  6  1  0  0  0  0
  5 31  1  0  0  0  0
  5 32  1  0  0  0  0
  6  7  1  1  0  0  0
  6  8  1  0  0  0  0
  6  9  1  0  0  0  0
  8 33  1  0  0  0  0
  9 10  1  1  0  0  0
  9 21  1  0  0  0  0
  9 11  1  0  0  0  0
 11 12  1  0  0  0  0
 12 13  1  6  0  0  0
 12 19  1  0  0  0  0
 12 14  1  0  0  0  0
 14 15  1  0  0  0  0
 15 16  1  0  0  0  0
 15 17  1  0  0  0  0
 15 18  1  0  0  0  0
 16 34  1  0  0  0  0
 16 35  1  0  0  0  0
 16 36  1  0  0  0  0
 17 37  1  0  0  0  0
 17 38  1  0  0  0  0
 17 39  1  0  0  0  0
 18 19  1  0  0  0  0
 19 20  1  6  0  0  0
 19 21  1  0  0  0  0
 21 22  1  1  0  0  0
 21 23  1  0  0  0  0
 23 24  1  0  0  0  0
 23 40  1  0  0  0  0
 24 25  1  0  0  0  0
 24 26  2  0  0  0  0
 25 41  1  0  0  0  0
 25 42  1  0  0  0  0
 25 43  1  0  0  0  0
M  END
$$$$
