ZINC000000022390      none
 OpenBabel11202420153D

 27 28  0  0  0  0  0  0  0  0999 V2000
   30.0642   38.3437   68.6776 C   0  0  0  0  0  0  0  0  0  0  0  0
   28.9152   37.9123   67.7640 C   0  0  0  0  0  0  0  0  0  0  0  0
   29.4415   37.0869   66.6740 N   0  0  0  0  0  0  0  0  0  0  0  0
   29.5991   35.6223   66.6763 C   0  0  0  0  0  0  0  0  0  0  0  0
   30.1762   35.3240   65.3067 C   0  0  0  0  0  0  0  0  0  0  0  0
   30.4686   34.2370   64.8561 O   0  0  0  0  0  0  0  0  0  0  0  0
   30.2983   36.5185   64.6947 N   0  0  0  0  0  0  0  0  0  0  0  0
   30.8003   36.6911   63.3966 C   0  0  0  0  0  0  0  0  0  0  0  0
   32.1595   36.8970   63.1976 C   0  0  0  0  0  0  0  0  0  0  0  0
   33.2407   36.9345   64.5553 Cl  0  0  0  0  0  0  0  0  0  0  0  0
   32.6503   37.0720   61.9171 C   0  0  0  0  0  0  0  0  0  0  0  0
   31.7898   37.0432   60.8353 C   0  0  0  0  0  0  0  0  0  0  0  0
   30.4363   36.8384   61.0297 C   0  0  0  0  0  0  0  0  0  0  0  0
   29.9388   36.6624   62.3074 C   0  0  0  0  0  0  0  0  0  0  0  0
   28.2391   36.4059   62.5505 Cl  0  0  0  0  0  0  0  0  0  0  0  0
   29.8759   37.5188   65.4764 C   0  0  0  0  0  0  0  0  0  0  0  0
   29.8872   39.1647   65.0051 S   0  0  0  0  0  0  0  0  0  0  0  0
   30.5498   37.4604   69.0926 H   0  0  0  0  0  0  0  0  0  0  0  0
   30.7887   38.9202   68.1025 H   0  0  0  0  0  0  0  0  0  0  0  0
   29.6726   38.9578   69.4885 H   0  0  0  0  0  0  0  0  0  0  0  0
   28.4296   38.7956   67.3490 H   0  0  0  0  0  0  0  0  0  0  0  0
   28.1905   37.3358   68.3391 H   0  0  0  0  0  0  0  0  0  0  0  0
   30.2881   35.3119   67.4619 H   0  0  0  0  0  0  0  0  0  0  0  0
   28.6327   35.1327   66.7969 H   0  0  0  0  0  0  0  0  0  0  0  0
   33.7071   37.2313   61.7615 H   0  0  0  0  0  0  0  0  0  0  0  0
   32.1758   37.1806   59.8359 H   0  0  0  0  0  0  0  0  0  0  0  0
   29.7668   36.8165   60.1825 H   0  0  0  0  0  0  0  0  0  0  0  0
  1  2  1  0  0  0  0
  1 18  1  0  0  0  0
  1 19  1  0  0  0  0
  1 20  1  0  0  0  0
  2  3  1  0  0  0  0
  2 21  1  0  0  0  0
  2 22  1  0  0  0  0
  3 16  1  0  0  0  0
  3  4  1  0  0  0  0
  4  5  1  0  0  0  0
  4 23  1  0  0  0  0
  4 24  1  0  0  0  0
  5  6  2  0  0  0  0
  5  7  1  0  0  0  0
  7  8  1  0  0  0  0
  7 16  1  0  0  0  0
  8 14  2  0  0  0  0
  8  9  1  0  0  0  0
  9 10  1  0  0  0  0
  9 11  2  0  0  0  0
 11 12  1  0  0  0  0
 11 25  1  0  0  0  0
 12 13  2  0  0  0  0
 12 26  1  0  0  0  0
 13 14  1  0  0  0  0
 13 27  1  0  0  0  0
 14 15  1  0  0  0  0
 16 17  2  0  0  0  0
M  END
$$$$
