ZINC000000041235      none
 OpenBabel11202420153D

 30 32  0  0  0  0  0  0  0  0999 V2000
   32.0678   37.9086   61.1537 N   0  0  0  0  0  0  0  0  0  0  0  0
   31.9321   36.8871   60.6758 C   0  0  0  0  0  0  0  0  0  0  0  0
   31.7609   35.5993   60.0733 C   0  0  0  0  0  0  0  0  0  0  0  0
   31.2110   34.5464   60.8091 C   0  0  0  0  0  0  0  0  0  0  0  0
   31.0494   33.3095   60.2236 C   0  0  0  0  0  0  0  0  0  0  0  0
   31.4297   33.1030   58.9071 C   0  0  0  0  0  0  0  0  0  0  0  0
   31.9742   34.1329   58.1673 C   0  0  0  0  0  0  0  0  0  0  0  0
   32.1449   35.3867   58.7400 C   0  0  0  0  0  0  0  0  0  0  0  0
   32.6928   36.4258   57.9965 N   0  0  0  0  0  0  0  0  0  0  0  0
   33.0923   36.1999   56.6053 C   0  0  0  0  0  0  0  0  0  0  0  0
   33.6365   37.4397   56.0459 N   0  0  0  0  0  0  0  0  0  0  0  0
   33.7653   38.6719   56.7039 N   0  0  0  0  0  0  0  0  0  0  0  0
   34.2876   39.5322   55.9027 N   0  0  0  0  0  0  0  0  0  0  0  0
   34.5263   38.9687   54.7018 C   0  0  0  0  0  0  0  0  0  0  0  0
   35.0669   39.4567   53.5044 C   0  0  0  0  0  0  0  0  0  0  0  0
   35.1876   38.6279   52.4277 C   0  0  0  0  0  0  0  0  0  0  0  0
   34.7802   37.3021   52.5027 C   0  0  0  0  0  0  0  0  0  0  0  0
   34.2493   36.8022   53.6586 C   0  0  0  0  0  0  0  0  0  0  0  0
   34.1160   37.6261   54.7711 C   0  0  0  0  0  0  0  0  0  0  0  0
   30.9134   34.7016   61.8356 H   0  0  0  0  0  0  0  0  0  0  0  0
   30.6285   32.4955   60.7950 H   0  0  0  0  0  0  0  0  0  0  0  0
   31.2992   32.1299   58.4572 H   0  0  0  0  0  0  0  0  0  0  0  0
   32.2680   33.9639   57.1418 H   0  0  0  0  0  0  0  0  0  0  0  0
   32.8106   37.3005   58.3990 H   0  0  0  0  0  0  0  0  0  0  0  0
   33.8527   35.4198   56.5677 H   0  0  0  0  0  0  0  0  0  0  0  0
   32.2241   35.8893   56.0238 H   0  0  0  0  0  0  0  0  0  0  0  0
   35.3873   40.4857   53.4346 H   0  0  0  0  0  0  0  0  0  0  0  0
   35.6042   39.0070   51.5062 H   0  0  0  0  0  0  0  0  0  0  0  0
   34.8832   36.6609   51.6398 H   0  0  0  0  0  0  0  0  0  0  0  0
   33.9351   35.7701   53.7083 H   0  0  0  0  0  0  0  0  0  0  0  0
  1  2  3  0  0  0  0
  2  3  1  0  0  0  0
  3  8  2  0  0  0  0
  3  4  1  0  0  0  0
  4  5  2  0  0  0  0
  4 20  1  0  0  0  0
  5  6  1  0  0  0  0
  5 21  1  0  0  0  0
  6  7  2  0  0  0  0
  6 22  1  0  0  0  0
  7  8  1  0  0  0  0
  7 23  1  0  0  0  0
  8  9  1  0  0  0  0
  9 10  1  0  0  0  0
  9 24  1  0  0  0  0
 10 11  1  0  0  0  0
 10 25  1  0  0  0  0
 10 26  1  0  0  0  0
 11 19  1  0  0  0  0
 11 12  1  0  0  0  0
 12 13  2  0  0  0  0
 13 14  1  0  0  0  0
 14 19  2  0  0  0  0
 14 15  1  0  0  0  0
 15 16  2  0  0  0  0
 15 27  1  0  0  0  0
 16 17  1  0  0  0  0
 16 28  1  0  0  0  0
 17 18  2  0  0  0  0
 17 29  1  0  0  0  0
 18 19  1  0  0  0  0
 18 30  1  0  0  0  0
M  END
$$$$
