ZINC000000034393      none
 OpenBabel11202420153D

 34 35  0  0  0  0  0  0  0  0999 V2000
   33.3030   35.8921   51.4527 C   0  0  0  0  0  0  0  0  0  0  0  0
   32.6465   35.4647   52.7669 C   0  0  0  0  0  0  0  0  0  0  0  0
   32.5978   36.6073   53.6827 N   0  0  0  0  0  0  0  0  0  0  0  0
   33.8549   36.8883   54.7233 S   0  0  0  0  0  0  0  0  0  0  0  0
   33.8054   38.2708   55.0484 O   0  0  0  0  0  0  0  0  0  0  0  0
   34.9965   36.2650   54.1511 O   0  0  0  0  0  0  0  0  0  0  0  0
   33.5046   36.0142   56.2126 C   0  0  0  0  0  0  0  0  0  0  0  0
   33.9395   34.7104   56.3668 C   0  0  0  0  0  0  0  0  0  0  0  0
   33.6704   34.0228   57.5357 C   0  0  0  0  0  0  0  0  0  0  0  0
   32.9585   34.6338   58.5498 C   0  0  0  0  0  0  0  0  0  0  0  0
   32.6614   33.8820   59.8217 C   0  0  0  0  0  0  0  0  0  0  0  0
   32.5219   35.9425   58.3982 C   0  0  0  0  0  0  0  0  0  0  0  0
   31.8033   36.5672   59.4282 N   0  0  0  0  0  0  0  0  0  0  0  0
   30.6206   36.1814   59.9539 C   0  0  0  0  0  0  0  0  0  0  0  0
   30.3128   37.0410   60.8897 N   0  0  0  0  0  0  0  0  0  0  0  0
   31.2159   37.9490   60.9853 N   0  0  0  0  0  0  0  0  0  0  0  0
   32.1569   37.7328   60.1306 N   0  0  0  0  0  0  0  0  0  0  0  0
   32.7974   36.6320   57.2251 C   0  0  0  0  0  0  0  0  0  0  0  0
   32.3255   38.0533   57.0569 C   0  0  0  0  0  0  0  0  0  0  0  0
   34.3159   36.2433   51.6498 H   0  0  0  0  0  0  0  0  0  0  0  0
   33.3392   35.0423   50.7713 H   0  0  0  0  0  0  0  0  0  0  0  0
   32.7216   36.6958   51.0006 H   0  0  0  0  0  0  0  0  0  0  0  0
   33.2280   34.6613   53.2190 H   0  0  0  0  0  0  0  0  0  0  0  0
   31.6336   35.1138   52.5698 H   0  0  0  0  0  0  0  0  0  0  0  0
   31.8292   37.1991   53.6795 H   0  0  0  0  0  0  0  0  0  0  0  0
   34.4923   34.2292   55.5736 H   0  0  0  0  0  0  0  0  0  0  0  0
   34.0142   33.0060   57.6548 H   0  0  0  0  0  0  0  0  0  0  0  0
   31.6674   33.4391   59.7582 H   0  0  0  0  0  0  0  0  0  0  0  0
   32.6998   34.5689   60.6672 H   0  0  0  0  0  0  0  0  0  0  0  0
   33.4020   33.0942   59.9596 H   0  0  0  0  0  0  0  0  0  0  0  0
   30.0385   35.3212   59.6581 H   0  0  0  0  0  0  0  0  0  0  0  0
   33.1299   38.7376   57.3269 H   0  0  0  0  0  0  0  0  0  0  0  0
   32.0393   38.2207   56.0186 H   0  0  0  0  0  0  0  0  0  0  0  0
   31.4661   38.2298   57.7037 H   0  0  0  0  0  0  0  0  0  0  0  0
  1  2  1  0  0  0  0
  1 20  1  0  0  0  0
  1 21  1  0  0  0  0
  1 22  1  0  0  0  0
  2  3  1  0  0  0  0
  2 23  1  0  0  0  0
  2 24  1  0  0  0  0
  3  4  1  0  0  0  0
  3 25  1  0  0  0  0
  4  5  2  0  0  0  0
  4  6  2  0  0  0  0
  4  7  1  0  0  0  0
  7 18  2  0  0  0  0
  7  8  1  0  0  0  0
  8  9  2  0  0  0  0
  8 26  1  0  0  0  0
  9 10  1  0  0  0  0
  9 27  1  0  0  0  0
 10 11  1  0  0  0  0
 10 12  2  0  0  0  0
 11 28  1  0  0  0  0
 11 29  1  0  0  0  0
 11 30  1  0  0  0  0
 12 13  1  0  0  0  0
 12 18  1  0  0  0  0
 13 17  1  0  0  0  0
 13 14  1  0  0  0  0
 14 15  2  0  0  0  0
 14 31  1  0  0  0  0
 15 16  1  0  0  0  0
 16 17  2  0  0  0  0
 18 19  1  0  0  0  0
 19 32  1  0  0  0  0
 19 33  1  0  0  0  0
 19 34  1  0  0  0  0
M  END
$$$$
