ZINC000000009203      none
 OpenBabel11202420153D

 36 38  0  0  1  0  0  0  0  0999 V2000
   32.4946   33.7210   62.0882 C   0  0  0  0  0  0  0  0  0  0  0  0
   31.2700   33.5110   61.1955 C   0  0  2  0  0  0  0  0  0  0  0  0
   30.7397   32.6113   61.5470 H   0  0  0  0  0  0  0  0  0  0  0  0
   31.6948   33.2788   59.8069 N   0  0  0  0  0  0  0  0  0  0  0  0
   32.1468   34.3918   59.0862 C   0  0  0  0  0  0  0  0  0  0  0  0
   33.0491   34.2351   58.0450 C   0  0  0  0  0  0  0  0  0  0  0  0
   33.4920   35.3399   57.3477 C   0  0  0  0  0  0  0  0  0  0  0  0
   33.0256   36.6062   57.6943 C   0  0  0  0  0  0  0  0  0  0  0  0
   33.4989   37.7996   56.9491 C   0  0  0  0  0  0  0  0  0  0  0  0
   33.6078   39.0275   57.5195 C   0  0  0  0  0  0  0  0  0  0  0  0
   34.1793   40.1716   56.3910 S   0  0  0  0  0  0  0  0  0  0  0  0
   34.2713   38.9586   55.1229 C   0  0  0  0  0  0  0  0  0  0  0  0
   34.7049   39.1996   53.7795 C   0  0  0  0  0  0  0  0  0  0  0  0
   35.0488   39.3909   52.7139 N   0  0  0  0  0  0  0  0  0  0  0  0
   33.8720   37.7522   55.6152 C   0  0  0  0  0  0  0  0  0  0  0  0
   32.1152   36.7557   58.7387 C   0  0  0  0  0  0  0  0  0  0  0  0
   31.6729   35.6492   59.4391 C   0  0  0  0  0  0  0  0  0  0  0  0
   30.6843   35.8180   60.5596 C   0  0  0  0  0  0  0  0  0  0  0  0
   29.3750   36.3700   59.9651 C   0  0  0  0  0  0  0  0  0  0  0  0
   31.2215   36.8595   61.5522 C   0  0  0  0  0  0  0  0  0  0  0  0
   30.3895   34.6187   61.2476 O   0  0  0  0  0  0  0  0  0  0  0  0
   32.1728   33.8558   63.1208 H   0  0  0  0  0  0  0  0  0  0  0  0
   33.1464   32.8499   62.0215 H   0  0  0  0  0  0  0  0  0  0  0  0
   33.0371   34.6069   61.7581 H   0  0  0  0  0  0  0  0  0  0  0  0
   31.6641   32.3969   59.4091 H   0  0  0  0  0  0  0  0  0  0  0  0
   33.4062   33.2507   57.7804 H   0  0  0  0  0  0  0  0  0  0  0  0
   34.1964   35.2231   56.5381 H   0  0  0  0  0  0  0  0  0  0  0  0
   33.3646   39.2495   58.5481 H   0  0  0  0  0  0  0  0  0  0  0  0
   33.8460   36.8492   55.0235 H   0  0  0  0  0  0  0  0  0  0  0  0
   31.7600   37.7440   58.9907 H   0  0  0  0  0  0  0  0  0  0  0  0
   28.6649   36.5654   60.7687 H   0  0  0  0  0  0  0  0  0  0  0  0
   29.5815   37.2966   59.4295 H   0  0  0  0  0  0  0  0  0  0  0  0
   28.9520   35.6388   59.2764 H   0  0  0  0  0  0  0  0  0  0  0  0
   32.1279   36.4788   62.0231 H   0  0  0  0  0  0  0  0  0  0  0  0
   31.4487   37.7839   61.0214 H   0  0  0  0  0  0  0  0  0  0  0  0
   30.4693   37.0547   62.3165 H   0  0  0  0  0  0  0  0  0  0  0  0
  1  2  1  0  0  0  0
  1 22  1  0  0  0  0
  1 23  1  0  0  0  0
  1 24  1  0  0  0  0
  2  3  1  1  0  0  0
  2 21  1  0  0  0  0
  2  4  1  0  0  0  0
  4  5  1  0  0  0  0
  4 25  1  0  0  0  0
  5 17  2  0  0  0  0
  5  6  1  0  0  0  0
  6  7  2  0  0  0  0
  6 26  1  0  0  0  0
  7  8  1  0  0  0  0
  7 27  1  0  0  0  0
  8  9  1  0  0  0  0
  8 16  2  0  0  0  0
  9 15  1  0  0  0  0
  9 10  2  0  0  0  0
 10 11  1  0  0  0  0
 10 28  1  0  0  0  0
 11 12  1  0  0  0  0
 12 13  1  0  0  0  0
 12 15  2  0  0  0  0
 13 14  3  0  0  0  0
 15 29  1  0  0  0  0
 16 17  1  0  0  0  0
 16 30  1  0  0  0  0
 17 18  1  0  0  0  0
 18 19  1  0  0  0  0
 18 20  1  0  0  0  0
 18 21  1  0  0  0  0
 19 31  1  0  0  0  0
 19 32  1  0  0  0  0
 19 33  1  0  0  0  0
 20 34  1  0  0  0  0
 20 35  1  0  0  0  0
 20 36  1  0  0  0  0
M  END
$$$$
