ZINC000000036383      none
 OpenBabel11202420153D

 37 38  0  0  0  0  0  0  0  0999 V2000
   31.1092   33.4539   59.1746 C   0  0  0  0  0  0  0  0  0  0  0  0
   31.8705   34.3593   58.3729 O   0  0  0  0  0  0  0  0  0  0  0  0
   31.9319   35.6514   58.7903 C   0  0  0  0  0  0  0  0  0  0  0  0
   31.2734   36.0396   59.9478 C   0  0  0  0  0  0  0  0  0  0  0  0
   31.3332   37.3544   60.3675 C   0  0  0  0  0  0  0  0  0  0  0  0
   30.4908   37.8493   61.8339 S   0  0  0  0  0  0  0  0  0  0  0  0
   30.6731   39.2540   61.9468 O   0  0  0  0  0  0  0  0  0  0  0  0
   29.2112   37.2328   61.7889 O   0  0  0  0  0  0  0  0  0  0  0  0
   31.2929   37.1692   63.1131 N   0  0  0  0  0  0  0  0  0  0  0  0
   31.4209   35.7099   63.2261 C   0  0  0  0  0  0  0  0  0  0  0  0
   30.9088   35.2701   64.5964 C   0  0  0  0  0  0  0  0  0  0  0  0
   31.6431   36.0522   65.6880 C   0  0  0  0  0  0  0  0  0  0  0  0
   31.1536   35.5906   67.0622 C   0  0  0  0  0  0  0  0  0  0  0  0
   31.3625   37.5476   65.5228 C   0  0  0  0  0  0  0  0  0  0  0  0
   31.8846   38.0134   64.1600 C   0  0  0  0  0  0  0  0  0  0  0  0
   32.0573   38.2816   59.6408 C   0  0  0  0  0  0  0  0  0  0  0  0
   32.7149   37.8982   58.4867 C   0  0  0  0  0  0  0  0  0  0  0  0
   32.6540   36.5847   58.0594 C   0  0  0  0  0  0  0  0  0  0  0  0
   33.4801   36.1032   56.6104 Cl  0  0  0  0  0  0  0  0  0  0  0  0
   31.5293   33.4174   60.1797 H   0  0  0  0  0  0  0  0  0  0  0  0
   30.0751   33.7948   59.2251 H   0  0  0  0  0  0  0  0  0  0  0  0
   31.1426   32.4591   58.7305 H   0  0  0  0  0  0  0  0  0  0  0  0
   30.7106   35.3153   60.5180 H   0  0  0  0  0  0  0  0  0  0  0  0
   30.8305   35.2298   62.4456 H   0  0  0  0  0  0  0  0  0  0  0  0
   32.4680   35.4258   63.1220 H   0  0  0  0  0  0  0  0  0  0  0  0
   31.0900   34.2034   64.7288 H   0  0  0  0  0  0  0  0  0  0  0  0
   29.8391   35.4685   64.6639 H   0  0  0  0  0  0  0  0  0  0  0  0
   32.7148   35.8725   65.6050 H   0  0  0  0  0  0  0  0  0  0  0  0
   30.0819   35.7707   67.1455 H   0  0  0  0  0  0  0  0  0  0  0  0
   31.3534   34.5256   67.1801 H   0  0  0  0  0  0  0  0  0  0  0  0
   31.6771   36.1466   67.8400 H   0  0  0  0  0  0  0  0  0  0  0  0
   31.8667   38.1019   66.3144 H   0  0  0  0  0  0  0  0  0  0  0  0
   30.2886   37.7249   65.5810 H   0  0  0  0  0  0  0  0  0  0  0  0
   32.9704   37.9211   64.1335 H   0  0  0  0  0  0  0  0  0  0  0  0
   31.6021   39.0530   63.9940 H   0  0  0  0  0  0  0  0  0  0  0  0
   32.1060   39.3080   59.9732 H   0  0  0  0  0  0  0  0  0  0  0  0
   33.2768   38.6250   57.9189 H   0  0  0  0  0  0  0  0  0  0  0  0
  1  2  1  0  0  0  0
  1 20  1  0  0  0  0
  1 21  1  0  0  0  0
  1 22  1  0  0  0  0
  2  3  1  0  0  0  0
  3 18  2  0  0  0  0
  3  4  1  0  0  0  0
  4  5  2  0  0  0  0
  4 23  1  0  0  0  0
  5  6  1  0  0  0  0
  5 16  1  0  0  0  0
  6  7  2  0  0  0  0
  6  8  2  0  0  0  0
  6  9  1  0  0  0  0
  9 15  1  0  0  0  0
  9 10  1  0  0  0  0
 10 11  1  0  0  0  0
 10 24  1  0  0  0  0
 10 25  1  0  0  0  0
 11 12  1  0  0  0  0
 11 26  1  0  0  0  0
 11 27  1  0  0  0  0
 12 13  1  0  0  0  0
 12 14  1  0  0  0  0
 12 28  1  0  0  0  0
 13 29  1  0  0  0  0
 13 30  1  0  0  0  0
 13 31  1  0  0  0  0
 14 15  1  0  0  0  0
 14 32  1  0  0  0  0
 14 33  1  0  0  0  0
 15 34  1  0  0  0  0
 15 35  1  0  0  0  0
 16 17  2  0  0  0  0
 16 36  1  0  0  0  0
 17 18  1  0  0  0  0
 17 37  1  0  0  0  0
 18 19  1  0  0  0  0
M  END
$$$$
