ZINC000000039209      none
 OpenBabel11202420153D

 26 28  0  0  1  0  0  0  0  0999 V2000
   30.0842   36.6498   60.5307 S   0  0  0  0  0  0  0  0  0  0  0  0
   30.0687   37.2211   62.1445 C   0  0  0  0  0  0  0  0  0  0  0  0
   29.9776   38.5091   62.4973 N   0  0  0  0  0  0  0  0  0  0  0  0
   29.9853   38.6937   63.7172 N   0  0  0  0  0  0  0  0  0  0  0  0
   30.0962   37.3806   64.3725 C   0  0  2  0  0  0  0  0  0  0  0  0
   31.3601   37.3000   65.1893 C   0  0  0  0  0  0  0  0  0  0  0  0
   32.5968   37.4321   64.7074 C   0  0  0  0  0  0  0  0  0  0  0  0
   33.6049   37.3192   65.6491 C   0  0  0  0  0  0  0  0  0  0  0  0
   33.1869   37.0956   66.8960 C   0  0  0  0  0  0  0  0  0  0  0  0
   31.4304   37.0097   66.9227 S   0  0  0  0  0  0  0  0  0  0  0  0
   30.1475   36.4351   63.2409 N   0  0  0  0  0  0  0  0  0  0  0  0
   30.2541   35.0427   63.2915 C   0  0  0  0  0  0  0  0  0  0  0  0
   29.2810   34.2931   63.9404 C   0  0  0  0  0  0  0  0  0  0  0  0
   29.3869   32.9169   63.9843 C   0  0  0  0  0  0  0  0  0  0  0  0
   30.4653   32.2855   63.3920 C   0  0  0  0  0  0  0  0  0  0  0  0
   31.4385   33.0290   62.7497 C   0  0  0  0  0  0  0  0  0  0  0  0
   31.3364   34.4051   62.6979 C   0  0  0  0  0  0  0  0  0  0  0  0
   29.2239   37.1884   64.9972 H   0  0  0  0  0  0  0  0  0  0  0  0
   32.7966   37.6129   63.6615 H   0  0  0  0  0  0  0  0  0  0  0  0
   34.6508   37.4054   65.3938 H   0  0  0  0  0  0  0  0  0  0  0  0
   33.8290   36.9803   67.7568 H   0  0  0  0  0  0  0  0  0  0  0  0
   28.4407   34.7858   64.4067 H   0  0  0  0  0  0  0  0  0  0  0  0
   28.6290   32.3333   64.4856 H   0  0  0  0  0  0  0  0  0  0  0  0
   30.5478   31.2094   63.4313 H   0  0  0  0  0  0  0  0  0  0  0  0
   32.2795   32.5328   62.2884 H   0  0  0  0  0  0  0  0  0  0  0  0
   32.0972   34.9852   62.1968 H   0  0  0  0  0  0  0  0  0  0  0  0
  1  2  2  0  0  0  0
  2 11  1  0  0  0  0
  2  3  1  0  0  0  0
  3  4  2  0  0  0  0
  4  5  1  0  0  0  0
  5  6  1  0  0  0  0
  5 11  1  0  0  0  0
  5 18  1  1  0  0  0
  6 10  1  0  0  0  0
  6  7  2  0  0  0  0
  7  8  1  0  0  0  0
  7 19  1  0  0  0  0
  8  9  2  0  0  0  0
  8 20  1  0  0  0  0
  9 10  1  0  0  0  0
  9 21  1  0  0  0  0
 11 12  1  0  0  0  0
 12 17  2  0  0  0  0
 12 13  1  0  0  0  0
 13 14  2  0  0  0  0
 13 22  1  0  0  0  0
 14 15  1  0  0  0  0
 14 23  1  0  0  0  0
 15 16  2  0  0  0  0
 15 24  1  0  0  0  0
 16 17  1  0  0  0  0
 16 25  1  0  0  0  0
 17 26  1  0  0  0  0
M  END
$$$$
