ZINC000000039384      none
 OpenBabel11202420153D

 20 21  0  0  0  0  0  0  0  0999 V2000
   33.6520   35.7205   55.1143 N   0  0  0  0  0  0  0  0  0  0  0  0
   33.9984   37.0222   55.3416 N   0  0  0  0  0  0  0  0  0  0  0  0
   33.6219   37.6483   56.5348 C   0  0  0  0  0  0  0  0  0  0  0  0
   33.9753   38.9734   56.7645 C   0  0  0  0  0  0  0  0  0  0  0  0
   33.6014   39.5986   57.9371 C   0  0  0  0  0  0  0  0  0  0  0  0
   32.8762   38.9022   58.8920 C   0  0  0  0  0  0  0  0  0  0  0  0
   32.3647   39.2473   60.1435 N   0  0  0  0  0  0  0  0  0  0  0  0
   32.4500   40.1129   60.5729 H   0  0  0  0  0  0  0  0  0  0  0  0
   31.7326   38.1734   60.6532 C   0  0  0  0  0  0  0  0  0  0  0  0
   31.1747   38.1363   61.7340 O   0  0  0  0  0  0  0  0  0  0  0  0
   31.8118   37.1465   59.7862 N   0  0  0  0  0  0  0  0  0  0  0  0
   31.4361   36.2621   59.9184 H   0  0  0  0  0  0  0  0  0  0  0  0
   32.5247   37.5697   58.6669 C   0  0  0  0  0  0  0  0  0  0  0  0
   32.9013   36.9446   57.4882 C   0  0  0  0  0  0  0  0  0  0  0  0
   32.6538   35.5938   55.1881 H   0  0  0  0  0  0  0  0  0  0  0  0
   33.9911   35.4075   54.2171 H   0  0  0  0  0  0  0  0  0  0  0  0
   34.5054   37.5125   54.6756 H   0  0  0  0  0  0  0  0  0  0  0  0
   34.5400   39.5166   56.0212 H   0  0  0  0  0  0  0  0  0  0  0  0
   33.8738   40.6291   58.1108 H   0  0  0  0  0  0  0  0  0  0  0  0
   32.6305   35.9142   57.3111 H   0  0  0  0  0  0  0  0  0  0  0  0
  1  2  1  0  0  0  0
  1 15  1  0  0  0  0
  1 16  1  0  0  0  0
  2  3  1  0  0  0  0
  2 17  1  0  0  0  0
  3 14  2  0  0  0  0
  3  4  1  0  0  0  0
  4  5  2  0  0  0  0
  4 18  1  0  0  0  0
  5  6  1  0  0  0  0
  5 19  1  0  0  0  0
  6 13  2  0  0  0  0
  6  7  1  0  0  0  0
  7  8  1  0  0  0  0
  7  9  1  0  0  0  0
  9 10  2  0  0  0  0
  9 11  1  0  0  0  0
 11 12  1  0  0  0  0
 11 13  1  0  0  0  0
 13 14  1  0  0  0  0
 14 20  1  0  0  0  0
M  END
$$$$
