ZINC000000039695      none
 OpenBabel11202420153D

 23 24  0  0  0  0  0  0  0  0999 V2000
   31.6965   32.8211   60.8959 C   0  0  0  0  0  0  0  0  0  0  0  0
   31.5246   33.9627   59.9942 N   0  0  0  0  0  0  0  0  0  0  0  0
   31.2058   33.7549   58.6822 N   0  0  0  0  0  0  0  0  0  0  0  0
   31.6844   35.2462   60.4694 C   0  0  0  0  0  0  0  0  0  0  0  0
   31.4133   35.5277   61.7030 N   0  0  0  0  0  0  0  0  0  0  0  0
   31.7289   37.1592   61.8898 S   0  0  0  0  0  0  0  0  0  0  0  0
   30.4867   37.8150   62.1045 O   0  0  0  0  0  0  0  0  0  0  0  0
   32.8554   37.2833   62.7470 O   0  0  0  0  0  0  0  0  0  0  0  0
   32.2612   37.5460   60.2452 C   0  0  0  0  0  0  0  0  0  0  0  0
   32.6863   38.6797   59.6142 C   0  0  0  0  0  0  0  0  0  0  0  0
   33.0376   38.6280   58.2730 C   0  0  0  0  0  0  0  0  0  0  0  0
   32.9575   37.4257   57.5930 C   0  0  0  0  0  0  0  0  0  0  0  0
   32.5243   36.2822   58.2255 C   0  0  0  0  0  0  0  0  0  0  0  0
   32.1650   36.3160   59.5816 C   0  0  0  0  0  0  0  0  0  0  0  0
   30.9773   32.8912   61.7121 H   0  0  0  0  0  0  0  0  0  0  0  0
   31.5319   31.8950   60.3451 H   0  0  0  0  0  0  0  0  0  0  0  0
   32.7082   32.8276   61.3016 H   0  0  0  0  0  0  0  0  0  0  0  0
   31.2090   32.7705   58.4609 H   0  0  0  0  0  0  0  0  0  0  0  0
   30.3163   34.1737   58.4556 H   0  0  0  0  0  0  0  0  0  0  0  0
   32.7483   39.6119   60.1560 H   0  0  0  0  0  0  0  0  0  0  0  0
   33.3750   39.5190   57.7644 H   0  0  0  0  0  0  0  0  0  0  0  0
   33.2351   37.3844   56.5501 H   0  0  0  0  0  0  0  0  0  0  0  0
   32.4650   35.3539   57.6768 H   0  0  0  0  0  0  0  0  0  0  0  0
  1  2  1  0  0  0  0
  1 15  1  0  0  0  0
  1 16  1  0  0  0  0
  1 17  1  0  0  0  0
  2  3  1  0  0  0  0
  2  4  1  0  0  0  0
  3 18  1  0  0  0  0
  3 19  1  0  0  0  0
  4 14  1  0  0  0  0
  4  5  2  0  0  0  0
  5  6  1  0  0  0  0
  6  7  2  0  0  0  0
  6  8  2  0  0  0  0
  6  9  1  0  0  0  0
  9 14  2  0  0  0  0
  9 10  1  0  0  0  0
 10 11  2  0  0  0  0
 10 20  1  0  0  0  0
 11 12  1  0  0  0  0
 11 21  1  0  0  0  0
 12 13  2  0  0  0  0
 12 22  1  0  0  0  0
 13 14  1  0  0  0  0
 13 23  1  0  0  0  0
M  END
$$$$
