ZINC000000055350      none
 OpenBabel11202420153D

 56 58  0  0  0  0  0  0  0  0999 V2000
   28.1007   29.4769   66.9483 C   0  0  0  0  0  0  0  0  0  0  0  0
   28.9176   30.5255   67.5641 N   0  0  0  0  0  0  0  0  0  0  0  0
   29.2239   30.4695   68.9957 C   0  0  0  0  0  0  0  0  0  0  0  0
   29.3944   31.5566   66.8028 C   0  0  0  0  0  0  0  0  0  0  0  0
   29.1123   31.6082   65.4844 C   0  0  0  0  0  0  0  0  0  0  0  0
   29.6059   32.6757   64.6959 C   0  0  0  0  0  0  0  0  0  0  0  0
   29.8499   32.4989   63.5144 O   0  0  0  0  0  0  0  0  0  0  0  0
   29.8247   33.9980   65.3022 C   0  0  0  0  0  0  0  0  0  0  0  0
   29.1359   34.5177   66.3344 N   0  0  0  0  0  0  0  0  0  0  0  0
   29.5814   35.6935   66.6069 N   0  0  0  0  0  0  0  0  0  0  0  0
   30.6293   35.9972   65.7271 N   0  0  0  0  0  0  0  0  0  0  0  0
   31.4112   37.2356   65.6958 C   0  0  0  0  0  0  0  0  0  0  0  0
   32.1156   37.4282   67.0403 C   0  0  0  0  0  0  0  0  0  0  0  0
   32.9323   38.7216   67.0075 C   0  0  0  0  0  0  0  0  0  0  0  0
   32.0005   39.9065   66.7455 C   0  0  0  0  0  0  0  0  0  0  0  0
   31.2962   39.7140   65.4009 C   0  0  0  0  0  0  0  0  0  0  0  0
   30.4795   38.4206   65.4338 C   0  0  0  0  0  0  0  0  0  0  0  0
   30.7806   34.9266   64.9116 C   0  0  0  0  0  0  0  0  0  0  0  0
   31.6991   34.7881   63.8903 N   0  0  0  0  0  0  0  0  0  0  0  0
   31.1540   35.2870   62.6208 C   0  0  0  0  0  0  0  0  0  0  0  0
   31.4867   36.7729   62.4717 C   0  0  0  0  0  0  0  0  0  0  0  0
   30.9190   37.2925   61.1494 C   0  0  0  0  0  0  0  0  0  0  0  0
   31.5369   36.5124   59.9873 C   0  0  0  0  0  0  0  0  0  0  0  0
   31.2042   35.0265   60.1364 C   0  0  0  0  0  0  0  0  0  0  0  0
   31.7719   34.5069   61.4587 C   0  0  0  0  0  0  0  0  0  0  0  0
   28.6747   28.9821   66.1648 H   0  0  0  0  0  0  0  0  0  0  0  0
   27.8152   28.7468   67.7056 H   0  0  0  0  0  0  0  0  0  0  0  0
   27.2042   29.9216   66.5161 H   0  0  0  0  0  0  0  0  0  0  0  0
   28.4508   30.9981   69.5536 H   0  0  0  0  0  0  0  0  0  0  0  0
   29.2587   29.4293   69.3195 H   0  0  0  0  0  0  0  0  0  0  0  0
   30.1900   30.9397   69.1792 H   0  0  0  0  0  0  0  0  0  0  0  0
   29.9966   32.3295   67.2567 H   0  0  0  0  0  0  0  0  0  0  0  0
   28.5101   30.8351   65.0302 H   0  0  0  0  0  0  0  0  0  0  0  0
   32.1550   37.1757   64.9012 H   0  0  0  0  0  0  0  0  0  0  0  0
   31.3719   37.4882   67.8348 H   0  0  0  0  0  0  0  0  0  0  0  0
   32.7794   36.5841   67.2269 H   0  0  0  0  0  0  0  0  0  0  0  0
   33.6760   38.6616   66.2129 H   0  0  0  0  0  0  0  0  0  0  0  0
   33.4341   38.8588   67.9652 H   0  0  0  0  0  0  0  0  0  0  0  0
   32.5823   40.8281   66.7221 H   0  0  0  0  0  0  0  0  0  0  0  0
   31.2568   39.9666   67.5400 H   0  0  0  0  0  0  0  0  0  0  0  0
   32.0399   39.6540   64.6064 H   0  0  0  0  0  0  0  0  0  0  0  0
   30.6324   40.5581   65.2143 H   0  0  0  0  0  0  0  0  0  0  0  0
   29.9777   38.2834   64.4760 H   0  0  0  0  0  0  0  0  0  0  0  0
   29.7357   38.4806   66.2284 H   0  0  0  0  0  0  0  0  0  0  0  0
   32.0004   33.8292   63.8024 H   0  0  0  0  0  0  0  0  0  0  0  0
   30.0721   35.1545   62.6127 H   0  0  0  0  0  0  0  0  0  0  0  0
   32.5686   36.9055   62.4796 H   0  0  0  0  0  0  0  0  0  0  0  0
   31.0465   37.3287   63.2995 H   0  0  0  0  0  0  0  0  0  0  0  0
   31.1561   38.3511   61.0431 H   0  0  0  0  0  0  0  0  0  0  0  0
   29.8371   37.1599   61.1414 H   0  0  0  0  0  0  0  0  0  0  0  0
   31.1324   36.8826   59.0453 H   0  0  0  0  0  0  0  0  0  0  0  0
   32.6188   36.6449   59.9952 H   0  0  0  0  0  0  0  0  0  0  0  0
   30.1223   34.8939   60.1285 H   0  0  0  0  0  0  0  0  0  0  0  0
   31.6444   34.4707   59.3085 H   0  0  0  0  0  0  0  0  0  0  0  0
   32.8538   34.6395   61.4666 H   0  0  0  0  0  0  0  0  0  0  0  0
   31.5349   33.4483   61.5649 H   0  0  0  0  0  0  0  0  0  0  0  0
  1  2  1  0  0  0  0
  1 26  1  0  0  0  0
  1 27  1  0  0  0  0
  1 28  1  0  0  0  0
  2  3  1  0  0  0  0
  2  4  1  0  0  0  0
  3 29  1  0  0  0  0
  3 30  1  0  0  0  0
  3 31  1  0  0  0  0
  4  5  2  0  0  0  0
  4 32  1  0  0  0  0
  5  6  1  0  0  0  0
  5 33  1  0  0  0  0
  6  7  2  0  0  0  0
  6  8  1  0  0  0  0
  8 18  2  0  0  0  0
  8  9  1  0  0  0  0
  9 10  2  0  0  0  0
 10 11  1  0  0  0  0
 11 12  1  0  0  0  0
 11 18  1  0  0  0  0
 12 17  1  0  0  0  0
 12 13  1  0  0  0  0
 12 34  1  0  0  0  0
 13 14  1  0  0  0  0
 13 35  1  0  0  0  0
 13 36  1  0  0  0  0
 14 15  1  0  0  0  0
 14 37  1  0  0  0  0
 14 38  1  0  0  0  0
 15 16  1  0  0  0  0
 15 39  1  0  0  0  0
 15 40  1  0  0  0  0
 16 17  1  0  0  0  0
 16 41  1  0  0  0  0
 16 42  1  0  0  0  0
 17 43  1  0  0  0  0
 17 44  1  0  0  0  0
 18 19  1  0  0  0  0
 19 20  1  0  0  0  0
 19 45  1  0  0  0  0
 20 25  1  0  0  0  0
 20 21  1  0  0  0  0
 20 46  1  0  0  0  0
 21 22  1  0  0  0  0
 21 47  1  0  0  0  0
 21 48  1  0  0  0  0
 22 23  1  0  0  0  0
 22 49  1  0  0  0  0
 22 50  1  0  0  0  0
 23 24  1  0  0  0  0
 23 51  1  0  0  0  0
 23 52  1  0  0  0  0
 24 25  1  0  0  0  0
 24 53  1  0  0  0  0
 24 54  1  0  0  0  0
 25 55  1  0  0  0  0
 25 56  1  0  0  0  0
M  END
$$$$
