ZINC000000053381      none
 OpenBabel11202420153D

 23 24  0  0  0  0  0  0  0  0999 V2000
   32.7188   33.3049   61.8034 N   0  0  0  0  0  0  0  0  0  0  0  0
   32.5717   34.6472   62.1065 C   0  0  0  0  0  0  0  0  0  0  0  0
   32.8311   35.0637   63.3372 N   0  0  0  0  0  0  0  0  0  0  0  0
   32.7012   36.3416   63.6641 C   0  0  0  0  0  0  0  0  0  0  0  0
   33.0449   36.8737   65.2805 Cl  0  0  0  0  0  0  0  0  0  0  0  0
   32.2940   37.2481   62.7003 C   0  0  0  0  0  0  0  0  0  0  0  0
   32.0237   36.7774   61.4173 C   0  0  0  0  0  0  0  0  0  0  0  0
   31.6177   37.6291   60.4444 O   0  0  0  0  0  0  0  0  0  0  0  0
   32.1978   37.5222   59.2199 C   0  0  0  0  0  0  0  0  0  0  0  0
   32.6126   38.6617   58.5460 C   0  0  0  0  0  0  0  0  0  0  0  0
   33.2024   38.5510   57.3018 C   0  0  0  0  0  0  0  0  0  0  0  0
   33.3794   37.3046   56.7275 C   0  0  0  0  0  0  0  0  0  0  0  0
   34.1208   37.1680   55.1637 Cl  0  0  0  0  0  0  0  0  0  0  0  0
   32.9664   36.1668   57.3980 C   0  0  0  0  0  0  0  0  0  0  0  0
   32.3762   36.2734   58.6424 C   0  0  0  0  0  0  0  0  0  0  0  0
   32.1747   35.4833   61.1592 N   0  0  0  0  0  0  0  0  0  0  0  0
   32.5320   32.9869   60.9063 H   0  0  0  0  0  0  0  0  0  0  0  0
   33.0089   32.6820   62.4881 H   0  0  0  0  0  0  0  0  0  0  0  0
   32.1844   38.2957   62.9386 H   0  0  0  0  0  0  0  0  0  0  0  0
   32.4705   39.6350   58.9919 H   0  0  0  0  0  0  0  0  0  0  0  0
   33.5254   39.4379   56.7768 H   0  0  0  0  0  0  0  0  0  0  0  0
   33.1051   35.1949   56.9480 H   0  0  0  0  0  0  0  0  0  0  0  0
   32.0536   35.3852   59.1653 H   0  0  0  0  0  0  0  0  0  0  0  0
  1  2  1  0  0  0  0
  1 17  1  0  0  0  0
  1 18  1  0  0  0  0
  2 16  2  0  0  0  0
  2  3  1  0  0  0  0
  3  4  2  0  0  0  0
  4  5  1  0  0  0  0
  4  6  1  0  0  0  0
  6  7  2  0  0  0  0
  6 19  1  0  0  0  0
  7  8  1  0  0  0  0
  7 16  1  0  0  0  0
  8  9  1  0  0  0  0
  9 15  2  0  0  0  0
  9 10  1  0  0  0  0
 10 11  2  0  0  0  0
 10 20  1  0  0  0  0
 11 12  1  0  0  0  0
 11 21  1  0  0  0  0
 12 13  1  0  0  0  0
 12 14  2  0  0  0  0
 14 15  1  0  0  0  0
 14 22  1  0  0  0  0
 15 23  1  0  0  0  0
M  END
$$$$
