ZINC000000006806      none
 OpenBabel11202420153D

 37 39  0  0  1  0  0  0  0  0999 V2000
   32.9496   35.0406   55.1906 C   0  0  0  0  0  0  0  0  0  0  0  0
   33.5415   36.2653   55.8910 C   0  0  0  0  0  0  0  0  0  0  0  0
   33.1598   37.5291   55.1178 C   0  0  0  0  0  0  0  0  0  0  0  0
   32.9996   36.3521   57.2945 C   0  0  0  0  0  0  0  0  0  0  0  0
   32.7920   37.5263   58.0457 C   0  0  0  0  0  0  0  0  0  0  0  0
   32.2929   37.0695   59.2380 C   0  0  0  0  0  0  0  0  0  0  0  0
   31.9030   37.8802   60.4024 C   0  0  0  0  0  0  0  0  0  0  0  0
   31.4319   37.2892   61.4960 C   0  0  0  0  0  0  0  0  0  0  0  0
   31.2621   35.7806   61.6135 C   0  0  0  0  0  0  0  0  0  0  0  0
   30.7242   35.5397   62.9671 N   0  0  1  0  0  0  0  0  0  0  0  0
   31.6605   36.0048   63.9977 C   0  0  0  0  0  0  0  0  0  0  0  0
   31.8473   37.5201   63.9081 C   0  0  0  0  0  0  0  0  0  0  0  0
   31.0083   38.0641   62.7402 C   0  0  2  0  0  0  0  0  0  0  0  0
   29.5393   37.6991   63.0108 C   0  0  0  0  0  0  0  0  0  0  0  0
   29.4120   36.1792   63.1235 C   0  0  0  0  0  0  0  0  0  0  0  0
   32.2371   35.7292   59.1301 O   0  0  0  0  0  0  0  0  0  0  0  0
   32.6318   35.3563   58.0500 N   0  0  0  0  0  0  0  0  0  0  0  0
   33.3416   34.9777   54.1755 H   0  0  0  0  0  0  0  0  0  0  0  0
   33.2217   34.1402   55.7415 H   0  0  0  0  0  0  0  0  0  0  0  0
   31.8640   35.1312   55.1560 H   0  0  0  0  0  0  0  0  0  0  0  0
   34.6272   36.1747   55.9257 H   0  0  0  0  0  0  0  0  0  0  0  0
   33.5815   38.4016   55.6167 H   0  0  0  0  0  0  0  0  0  0  0  0
   33.5517   37.4663   54.1026 H   0  0  0  0  0  0  0  0  0  0  0  0
   32.0741   37.6197   55.0831 H   0  0  0  0  0  0  0  0  0  0  0  0
   32.9822   38.5477   57.7509 H   0  0  0  0  0  0  0  0  0  0  0  0
   31.9996   38.9553   60.3686 H   0  0  0  0  0  0  0  0  0  0  0  0
   30.5626   35.4214   60.8588 H   0  0  0  0  0  0  0  0  0  0  0  0
   32.2260   35.2842   61.5010 H   0  0  0  0  0  0  0  0  0  0  0  0
   32.6238   35.5147   63.8560 H   0  0  0  0  0  0  0  0  0  0  0  0
   31.2686   35.7483   64.9819 H   0  0  0  0  0  0  0  0  0  0  0  0
   32.8996   37.7479   63.7379 H   0  0  0  0  0  0  0  0  0  0  0  0
   31.5202   37.9839   64.8387 H   0  0  0  0  0  0  0  0  0  0  0  0
   31.1467   39.1376   62.6119 H   0  0  0  0  0  0  0  0  0  0  0  0
   29.2147   38.1619   63.9427 H   0  0  0  0  0  0  0  0  0  0  0  0
   28.9181   38.0567   62.1897 H   0  0  0  0  0  0  0  0  0  0  0  0
   28.7400   35.8160   62.3460 H   0  0  0  0  0  0  0  0  0  0  0  0
   29.0018   35.9242   64.1007 H   0  0  0  0  0  0  0  0  0  0  0  0
  1  2  1  0  0  0  0
  1 18  1  0  0  0  0
  1 19  1  0  0  0  0
  1 20  1  0  0  0  0
  2  3  1  0  0  0  0
  2  4  1  0  0  0  0
  2 21  1  0  0  0  0
  3 22  1  0  0  0  0
  3 23  1  0  0  0  0
  3 24  1  0  0  0  0
  4 17  2  0  0  0  0
  4  5  1  0  0  0  0
  5  6  2  0  0  0  0
  5 25  1  0  0  0  0
  6  7  1  0  0  0  0
  6 16  1  0  0  0  0
  7  8  2  0  0  0  0
  7 26  1  0  0  0  0
  8 13  1  0  0  0  0
  8  9  1  0  0  0  0
  9 27  1  0  0  0  0
  9 28  1  0  0  0  0
 10  9  1  6  0  0  0
 10 15  1  0  0  0  0
 10 11  1  0  0  0  0
 11 12  1  0  0  0  0
 11 29  1  0  0  0  0
 11 30  1  0  0  0  0
 12 13  1  0  0  0  0
 12 31  1  0  0  0  0
 12 32  1  0  0  0  0
 13 14  1  0  0  0  0
 13 33  1  6  0  0  0
 14 15  1  0  0  0  0
 14 34  1  0  0  0  0
 14 35  1  0  0  0  0
 15 36  1  0  0  0  0
 15 37  1  0  0  0  0
 16 17  1  0  0  0  0
M  END
$$$$
