ZINC000000017172      none
 OpenBabel11202420153D

 31 34  0  0  1  0  0  0  0  0999 V2000
   30.1121   38.1122   62.5822 C   0  0  0  0  0  0  0  0  0  0  0  0
   31.0995   37.3554   62.0183 C   0  0  0  0  0  0  0  0  0  0  0  0
   31.6832   37.6322   60.7036 C   0  0  0  0  0  0  0  0  0  0  0  0
   32.2932   38.7281   60.3805 N   0  0  0  0  0  0  0  0  0  0  0  0
   32.7808   38.8299   59.1313 C   0  0  0  0  0  0  0  0  0  0  0  0
   33.4710   39.9101   58.5383 C   0  0  0  0  0  0  0  0  0  0  0  0
   33.8905   39.8347   57.2346 C   0  0  0  0  0  0  0  0  0  0  0  0
   33.6392   38.7005   56.4760 C   0  0  0  0  0  0  0  0  0  0  0  0
   32.9632   37.6366   57.0308 C   0  0  0  0  0  0  0  0  0  0  0  0
   32.5293   37.6946   58.3531 C   0  0  0  0  0  0  0  0  0  0  0  0
   31.6553   36.5246   59.3386 S   0  0  0  0  0  0  0  0  0  0  0  0
   31.5340   36.1927   62.9092 C   0  0  1  0  0  0  0  0  0  0  0  0
   31.9745   36.8134   64.2478 C   0  0  0  0  0  0  0  0  0  0  0  0
   30.8428   37.7057   64.7678 C   0  0  0  0  0  0  0  0  0  0  0  0
   29.7064   37.6629   63.8333 N   0  0  0  0  0  0  0  0  0  0  0  0
   29.1816   36.2913   63.7323 C   0  0  0  0  0  0  0  0  0  0  0  0
   30.2679   35.3604   63.1841 C   0  0  0  0  0  0  0  0  0  0  0  0
   29.6841   38.9780   62.0990 H   0  0  0  0  0  0  0  0  0  0  0  0
   33.6737   40.7995   59.1164 H   0  0  0  0  0  0  0  0  0  0  0  0
   34.4213   40.6658   56.7946 H   0  0  0  0  0  0  0  0  0  0  0  0
   33.9737   38.6519   55.4503 H   0  0  0  0  0  0  0  0  0  0  0  0
   32.7684   36.7547   56.4385 H   0  0  0  0  0  0  0  0  0  0  0  0
   32.3211   35.5967   62.4474 H   0  0  0  0  0  0  0  0  0  0  0  0
   32.1773   36.0218   64.9692 H   0  0  0  0  0  0  0  0  0  0  0  0
   32.8725   37.4123   64.0957 H   0  0  0  0  0  0  0  0  0  0  0  0
   31.2012   38.7313   64.8559 H   0  0  0  0  0  0  0  0  0  0  0  0
   30.5210   37.3497   65.7464 H   0  0  0  0  0  0  0  0  0  0  0  0
   28.3225   36.2804   63.0615 H   0  0  0  0  0  0  0  0  0  0  0  0
   28.8739   35.9473   64.7197 H   0  0  0  0  0  0  0  0  0  0  0  0
   29.9232   34.9014   62.2575 H   0  0  0  0  0  0  0  0  0  0  0  0
   30.4919   34.5841   63.9158 H   0  0  0  0  0  0  0  0  0  0  0  0
  1 15  1  0  0  0  0
  1  2  2  0  0  0  0
  1 18  1  0  0  0  0
  2  3  1  0  0  0  0
  2 12  1  0  0  0  0
  3 11  1  0  0  0  0
  3  4  2  0  0  0  0
  4  5  1  0  0  0  0
  5 10  2  0  0  0  0
  5  6  1  0  0  0  0
  6  7  2  0  0  0  0
  6 19  1  0  0  0  0
  7  8  1  0  0  0  0
  7 20  1  0  0  0  0
  8  9  2  0  0  0  0
  8 21  1  0  0  0  0
  9 10  1  0  0  0  0
  9 22  1  0  0  0  0
 10 11  1  0  0  0  0
 12 17  1  0  0  0  0
 12 13  1  0  0  0  0
 12 23  1  6  0  0  0
 13 14  1  0  0  0  0
 13 24  1  0  0  0  0
 13 25  1  0  0  0  0
 14 15  1  0  0  0  0
 14 26  1  0  0  0  0
 14 27  1  0  0  0  0
 15 16  1  0  0  0  0
 16 17  1  0  0  0  0
 16 28  1  0  0  0  0
 16 29  1  0  0  0  0
 17 30  1  0  0  0  0
 17 31  1  0  0  0  0
M  END
$$$$
