ZINC000000031559      none
 OpenBabel11202420163D

 28 29  0  0  0  0  0  0  0  0999 V2000
   32.6704   37.4483   65.6790 C   0  0  0  0  0  0  0  0  0  0  0  0
   32.3386   36.4833   64.5700 C   0  0  0  0  0  0  0  0  0  0  0  0
   31.5099   35.4935   64.6449 N   0  0  0  0  0  0  0  0  0  0  0  0
   31.3469   34.7795   63.6183 N   0  0  0  0  0  0  0  0  0  0  0  0
   32.0274   35.0914   62.5517 C   0  0  0  0  0  0  0  0  0  0  0  0
   31.9747   34.2537   61.0025 S   0  0  0  0  0  0  0  0  0  0  0  0
   30.6413   35.1723   60.1937 C   0  0  0  0  0  0  0  0  0  0  0  0
   31.2216   36.3425   59.4420 C   0  0  0  0  0  0  0  0  0  0  0  0
   30.8826   37.4725   59.7238 O   0  0  0  0  0  0  0  0  0  0  0  0
   32.1170   36.1333   58.4568 N   0  0  0  0  0  0  0  0  0  0  0  0
   32.6567   37.2215   57.7577 C   0  0  0  0  0  0  0  0  0  0  0  0
   32.7994   38.4502   58.3871 C   0  0  0  0  0  0  0  0  0  0  0  0
   33.3365   39.5205   57.6982 C   0  0  0  0  0  0  0  0  0  0  0  0
   33.7220   39.3722   56.3764 C   0  0  0  0  0  0  0  0  0  0  0  0
   34.2417   40.4222   55.7036 F   0  0  0  0  0  0  0  0  0  0  0  0
   33.5764   38.1495   55.7434 C   0  0  0  0  0  0  0  0  0  0  0  0
   33.0446   37.0735   56.4307 C   0  0  0  0  0  0  0  0  0  0  0  0
   32.9017   35.8803   55.8134 F   0  0  0  0  0  0  0  0  0  0  0  0
   33.0117   36.5045   62.9388 S   0  0  0  0  0  0  0  0  0  0  0  0
   33.5138   37.0654   66.2536 H   0  0  0  0  0  0  0  0  0  0  0  0
   32.9311   38.4167   65.2522 H   0  0  0  0  0  0  0  0  0  0  0  0
   31.8060   37.5606   66.3336 H   0  0  0  0  0  0  0  0  0  0  0  0
   30.1184   34.5165   59.4975 H   0  0  0  0  0  0  0  0  0  0  0  0
   29.9414   35.5350   60.9465 H   0  0  0  0  0  0  0  0  0  0  0  0
   32.3881   35.2296   58.2315 H   0  0  0  0  0  0  0  0  0  0  0  0
   32.4947   38.5685   59.4164 H   0  0  0  0  0  0  0  0  0  0  0  0
   33.4512   40.4753   58.1896 H   0  0  0  0  0  0  0  0  0  0  0  0
   33.8784   38.0357   54.7128 H   0  0  0  0  0  0  0  0  0  0  0  0
  1  2  1  0  0  0  0
  1 20  1  0  0  0  0
  1 21  1  0  0  0  0
  1 22  1  0  0  0  0
  2 19  1  0  0  0  0
  2  3  2  0  0  0  0
  3  4  1  0  0  0  0
  4  5  2  0  0  0  0
  5  6  1  0  0  0  0
  5 19  1  0  0  0  0
  6  7  1  0  0  0  0
  7  8  1  0  0  0  0
  7 23  1  0  0  0  0
  7 24  1  0  0  0  0
  8  9  2  0  0  0  0
  8 10  1  0  0  0  0
 10 11  1  0  0  0  0
 10 25  1  0  0  0  0
 11 17  2  0  0  0  0
 11 12  1  0  0  0  0
 12 13  2  0  0  0  0
 12 26  1  0  0  0  0
 13 14  1  0  0  0  0
 13 27  1  0  0  0  0
 14 15  1  0  0  0  0
 14 16  2  0  0  0  0
 16 17  1  0  0  0  0
 16 28  1  0  0  0  0
 17 18  1  0  0  0  0
M  END
$$$$
