ZINC000000008492      none
 OpenBabel11202420153D

 18 19  0  0  0  0  0  0  0  0999 V2000
   32.4014   39.0711   60.4293 O   0  0  0  0  0  0  0  0  0  0  0  0
   32.7896   38.8851   59.1410 C   0  0  0  0  0  0  0  0  0  0  0  0
   33.2179   39.9449   58.3929 C   0  0  0  0  0  0  0  0  0  0  0  0
   33.6198   39.7738   57.0712 C   0  0  0  0  0  0  0  0  0  0  0  0
   33.6010   38.5434   56.4873 C   0  0  0  0  0  0  0  0  0  0  0  0
   33.1714   37.4288   57.2253 C   0  0  0  0  0  0  0  0  0  0  0  0
   33.1376   36.1415   56.6562 C   0  0  0  0  0  0  0  0  0  0  0  0
   32.7078   35.1044   57.4338 C   0  0  0  0  0  0  0  0  0  0  0  0
   32.3184   35.3379   58.7511 C   0  0  0  0  0  0  0  0  0  0  0  0
   32.3509   36.5380   59.2773 N   0  0  0  0  0  0  0  0  0  0  0  0
   32.7614   37.5952   58.5710 C   0  0  0  0  0  0  0  0  0  0  0  0
   32.4563   39.9891   60.7281 H   0  0  0  0  0  0  0  0  0  0  0  0
   33.2418   40.9311   58.8326 H   0  0  0  0  0  0  0  0  0  0  0  0
   33.9509   40.6288   56.5006 H   0  0  0  0  0  0  0  0  0  0  0  0
   33.9156   38.4255   55.4608 H   0  0  0  0  0  0  0  0  0  0  0  0
   33.4428   35.9789   55.6330 H   0  0  0  0  0  0  0  0  0  0  0  0
   32.6693   34.1043   57.0279 H   0  0  0  0  0  0  0  0  0  0  0  0
   31.9803   34.5083   59.3543 H   0  0  0  0  0  0  0  0  0  0  0  0
  1  2  1  0  0  0  0
  1 12  1  0  0  0  0
  2 11  2  0  0  0  0
  2  3  1  0  0  0  0
  3  4  2  0  0  0  0
  3 13  1  0  0  0  0
  4  5  1  0  0  0  0
  4 14  1  0  0  0  0
  5  6  2  0  0  0  0
  5 15  1  0  0  0  0
  6 11  1  0  0  0  0
  6  7  1  0  0  0  0
  7  8  2  0  0  0  0
  7 16  1  0  0  0  0
  8  9  1  0  0  0  0
  8 17  1  0  0  0  0
  9 10  2  0  0  0  0
  9 18  1  0  0  0  0
 10 11  1  0  0  0  0
M  END
$$$$
