ZINC000000055513      none
 OpenBabel11202420153D

 24 26  0  0  0  0  0  0  0  0999 V2000
   32.6740   35.5577   55.8301 O   0  0  0  0  0  0  0  0  0  0  0  0
   33.2935   36.5979   55.9453 C   0  0  0  0  0  0  0  0  0  0  0  0
   33.1173   37.4213   57.1530 C   0  0  0  0  0  0  0  0  0  0  0  0
   32.6501   36.8045   58.3229 C   0  0  0  0  0  0  0  0  0  0  0  0
   32.5074   37.5337   59.4800 C   0  0  0  0  0  0  0  0  0  0  0  0
   32.0094   36.8749   60.7085 N   0  0  0  0  0  0  0  0  0  0  0  0
   31.7273   35.6902   60.6927 O   0  0  0  0  0  0  0  0  0  0  0  0
   31.8818   37.5176   61.7352 O   0  0  0  0  0  0  0  0  0  0  0  0
   32.8276   38.8828   59.5023 C   0  0  0  0  0  0  0  0  0  0  0  0
   33.2746   39.5089   58.3591 C   0  0  0  0  0  0  0  0  0  0  0  0
   33.4068   38.7920   57.1729 C   0  0  0  0  0  0  0  0  0  0  0  0
   33.9183   39.6359   55.7102 S   0  0  0  0  0  0  0  0  0  0  0  0
   34.6268   38.2713   54.8306 C   0  0  0  0  0  0  0  0  0  0  0  0
   35.6292   38.3369   54.0116 N   0  0  0  0  0  0  0  0  0  0  0  0
   35.9058   37.0103   53.4382 C   0  0  0  0  0  0  0  0  0  0  0  0
   34.6858   36.1699   53.8808 C   0  0  0  0  0  0  0  0  0  0  0  0
   34.1312   36.9835   54.9709 N   0  0  0  0  0  0  0  0  0  0  0  0
   32.4015   35.7536   58.3148 H   0  0  0  0  0  0  0  0  0  0  0  0
   32.7259   39.4449   60.4189 H   0  0  0  0  0  0  0  0  0  0  0  0
   33.5238   40.5595   58.3834 H   0  0  0  0  0  0  0  0  0  0  0  0
   35.9606   37.0652   52.3509 H   0  0  0  0  0  0  0  0  0  0  0  0
   36.8282   36.5990   53.8481 H   0  0  0  0  0  0  0  0  0  0  0  0
   34.9991   35.1918   54.2461 H   0  0  0  0  0  0  0  0  0  0  0  0
   33.9677   36.0680   53.0672 H   0  0  0  0  0  0  0  0  0  0  0  0
  1  2  2  0  0  0  0
  2 17  1  0  0  0  0
  2  3  1  0  0  0  0
  3 11  2  0  0  0  0
  3  4  1  0  0  0  0
  4  5  2  0  0  0  0
  4 18  1  0  0  0  0
  5  6  1  0  0  0  0
  5  9  1  0  0  0  0
  6  7  2  0  0  0  0
  6  8  2  0  0  0  0
  9 10  2  0  0  0  0
  9 19  1  0  0  0  0
 10 11  1  0  0  0  0
 10 20  1  0  0  0  0
 11 12  1  0  0  0  0
 12 13  1  0  0  0  0
 13 17  1  0  0  0  0
 13 14  2  0  0  0  0
 14 15  1  0  0  0  0
 15 16  1  0  0  0  0
 15 21  1  0  0  0  0
 15 22  1  0  0  0  0
 16 17  1  0  0  0  0
 16 23  1  0  0  0  0
 16 24  1  0  0  0  0
M  END
$$$$
