ZINC000000048750      none
 OpenBabel11202420153D

 30 31  0  0  1  0  0  0  0  0999 V2000
   29.2791   40.7635   67.9018 C   0  0  0  0  0  0  0  0  0  0  0  0
   29.8580   40.0368   66.6861 C   0  0  2  0  0  0  0  0  0  0  0  0
   30.4948   40.7187   66.1227 H   0  0  0  0  0  0  0  0  0  0  0  0
   28.7146   39.5462   65.7907 C   0  0  0  0  0  0  0  0  0  0  0  0
   29.2848   38.6944   64.7349 N   0  0  0  0  0  0  0  0  0  0  0  0
   28.9834   38.9019   63.4377 C   0  0  0  0  0  0  0  0  0  0  0  0
   28.2295   39.8046   63.1251 O   0  0  0  0  0  0  0  0  0  0  0  0
   29.5638   38.0403   62.4036 C   0  0  0  0  0  0  0  0  0  0  0  0
   30.7442   38.2671   61.7536 C   0  0  0  0  0  0  0  0  0  0  0  0
   31.0478   37.3003   60.8247 C   0  0  0  0  0  0  0  0  0  0  0  0
   30.1540   36.3096   60.7236 C   0  0  0  0  0  0  0  0  0  0  0  0
   28.8527   36.5496   61.8005 S   0  0  0  0  0  0  0  0  0  0  0  0
   30.1889   37.6055   65.1376 C   0  0  0  0  0  0  0  0  0  0  0  0
   31.2647   38.1939   66.0646 C   0  0  1  0  0  0  0  0  0  0  0  0
   31.8651   37.3866   66.4834 H   0  0  0  0  0  0  0  0  0  0  0  0
   32.1657   39.1418   65.2703 C   0  0  0  0  0  0  0  0  0  0  0  0
   30.6287   38.9147   67.1228 O   0  0  0  0  0  0  0  0  0  0  0  0
   28.6445   40.0797   68.4656 H   0  0  0  0  0  0  0  0  0  0  0  0
   30.0928   41.1120   68.5381 H   0  0  0  0  0  0  0  0  0  0  0  0
   28.6882   41.6163   67.5679 H   0  0  0  0  0  0  0  0  0  0  0  0
   28.2087   40.4001   65.3401 H   0  0  0  0  0  0  0  0  0  0  0  0
   28.0050   38.9696   66.3841 H   0  0  0  0  0  0  0  0  0  0  0  0
   31.3736   39.1232   61.9470 H   0  0  0  0  0  0  0  0  0  0  0  0
   31.9442   37.3357   60.2232 H   0  0  0  0  0  0  0  0  0  0  0  0
   30.2426   35.4719   60.0476 H   0  0  0  0  0  0  0  0  0  0  0  0
   29.6251   36.8369   65.6666 H   0  0  0  0  0  0  0  0  0  0  0  0
   30.6598   37.1737   64.2546 H   0  0  0  0  0  0  0  0  0  0  0  0
   32.9244   39.5608   65.9313 H   0  0  0  0  0  0  0  0  0  0  0  0
   32.6503   38.5917   64.4637 H   0  0  0  0  0  0  0  0  0  0  0  0
   31.5645   39.9480   64.8502 H   0  0  0  0  0  0  0  0  0  0  0  0
  1  2  1  0  0  0  0
  1 18  1  0  0  0  0
  1 19  1  0  0  0  0
  1 20  1  0  0  0  0
  2  3  1  6  0  0  0
  2 17  1  0  0  0  0
  2  4  1  0  0  0  0
  4  5  1  0  0  0  0
  4 21  1  0  0  0  0
  4 22  1  0  0  0  0
  5  6  1  0  0  0  0
  5 13  1  0  0  0  0
  6  7  2  0  0  0  0
  6  8  1  0  0  0  0
  8 12  1  0  0  0  0
  8  9  2  0  0  0  0
  9 10  1  0  0  0  0
  9 23  1  0  0  0  0
 10 11  2  0  0  0  0
 10 24  1  0  0  0  0
 11 12  1  0  0  0  0
 11 25  1  0  0  0  0
 13 14  1  0  0  0  0
 13 26  1  0  0  0  0
 13 27  1  0  0  0  0
 14 15  1  1  0  0  0
 14 16  1  0  0  0  0
 14 17  1  0  0  0  0
 16 28  1  0  0  0  0
 16 29  1  0  0  0  0
 16 30  1  0  0  0  0
M  END
$$$$
