ZINC000000041299      none
 OpenBabel11202420153D

 32 34  0  0  0  0  0  0  0  0999 V2000
   32.3627   37.6917   59.2304 C   0  0  0  0  0  0  0  0  0  0  0  0
   31.5646   37.1865   60.4341 C   0  0  0  0  0  0  0  0  0  0  0  0
   30.3019   36.4752   59.9439 C   0  0  0  0  0  0  0  0  0  0  0  0
   32.3800   36.2538   61.1987 O   0  0  0  0  0  0  0  0  0  0  0  0
   31.8332   35.8254   62.3702 C   0  0  0  0  0  0  0  0  0  0  0  0
   31.8370   34.6558   62.7019 O   0  0  0  0  0  0  0  0  0  0  0  0
   31.2312   36.8916   63.2148 C   0  0  0  0  0  0  0  0  0  0  0  0
   31.2710   36.8638   64.5949 C   0  0  0  0  0  0  0  0  0  0  0  0
   30.8145   38.0221   65.3633 C   0  0  0  0  0  0  0  0  0  0  0  0
   31.4383   39.2677   65.1974 C   0  0  0  0  0  0  0  0  0  0  0  0
   31.0066   40.3541   65.9222 C   0  0  0  0  0  0  0  0  0  0  0  0
   29.9530   40.2239   66.8203 C   0  0  0  0  0  0  0  0  0  0  0  0
   29.3259   38.9869   66.9915 C   0  0  0  0  0  0  0  0  0  0  0  0
   29.7513   37.8915   66.2695 C   0  0  0  0  0  0  0  0  0  0  0  0
   28.3340   39.1273   67.9192 O   0  0  0  0  0  0  0  0  0  0  0  0
   28.0918   40.5435   68.0104 C   0  0  0  0  0  0  0  0  0  0  0  0
   29.3526   41.1319   67.6404 O   0  0  0  0  0  0  0  0  0  0  0  0
   30.5774   37.9871   62.4499 C   0  0  0  0  0  0  0  0  0  0  0  0
   29.5747   38.5495   62.8454 O   0  0  0  0  0  0  0  0  0  0  0  0
   31.1898   38.3146   61.2745 O   0  0  0  0  0  0  0  0  0  0  0  0
   32.6399   36.8480   58.5982 H   0  0  0  0  0  0  0  0  0  0  0  0
   31.7528   38.3901   58.6573 H   0  0  0  0  0  0  0  0  0  0  0  0
   33.2638   38.1968   59.5780 H   0  0  0  0  0  0  0  0  0  0  0  0
   29.7334   36.1127   60.8004 H   0  0  0  0  0  0  0  0  0  0  0  0
   29.6908   37.1729   59.3712 H   0  0  0  0  0  0  0  0  0  0  0  0
   30.5817   35.6331   59.3108 H   0  0  0  0  0  0  0  0  0  0  0  0
   31.6392   35.9871   65.1070 H   0  0  0  0  0  0  0  0  0  0  0  0
   32.2572   39.3735   64.5013 H   0  0  0  0  0  0  0  0  0  0  0  0
   31.4876   41.3124   65.7930 H   0  0  0  0  0  0  0  0  0  0  0  0
   29.2672   36.9352   66.4015 H   0  0  0  0  0  0  0  0  0  0  0  0
   27.8244   40.8213   69.0299 H   0  0  0  0  0  0  0  0  0  0  0  0
   27.3099   40.8439   67.3131 H   0  0  0  0  0  0  0  0  0  0  0  0
  1  2  1  0  0  0  0
  1 21  1  0  0  0  0
  1 22  1  0  0  0  0
  1 23  1  0  0  0  0
  2 20  1  0  0  0  0
  2  3  1  0  0  0  0
  2  4  1  0  0  0  0
  3 24  1  0  0  0  0
  3 25  1  0  0  0  0
  3 26  1  0  0  0  0
  4  5  1  0  0  0  0
  5  6  2  0  0  0  0
  5  7  1  0  0  0  0
  7  8  2  0  0  0  0
  7 18  1  0  0  0  0
  8  9  1  0  0  0  0
  8 27  1  0  0  0  0
  9 14  2  0  0  0  0
  9 10  1  0  0  0  0
 10 11  2  0  0  0  0
 10 28  1  0  0  0  0
 11 12  1  0  0  0  0
 11 29  1  0  0  0  0
 12 17  1  0  0  0  0
 12 13  2  0  0  0  0
 13 14  1  0  0  0  0
 13 15  1  0  0  0  0
 14 30  1  0  0  0  0
 15 16  1  0  0  0  0
 16 17  1  0  0  0  0
 16 31  1  0  0  0  0
 16 32  1  0  0  0  0
 18 19  2  0  0  0  0
 18 20  1  0  0  0  0
M  END
$$$$
