ZINC000000028082      none
 OpenBabel11202420163D

 39 41  0  0  1  0  0  0  0  0999 V2000
   28.4946   39.6397   62.9211 N   0  0  0  0  0  0  0  0  0  0  0  0
   28.9289   38.9848   63.7415 C   0  0  0  0  0  0  0  0  0  0  0  0
   29.4763   38.1594   64.7757 C   0  0  0  0  0  0  0  0  0  0  0  0
   30.3025   37.1447   64.4742 C   0  0  0  0  0  0  0  0  0  0  0  0
   30.5577   36.8174   63.0128 C   0  0  0  0  0  0  0  0  0  0  0  0
   30.2261   35.3356   62.8007 C   0  0  0  0  0  0  0  0  0  0  0  0
   31.0239   34.4787   63.7834 C   0  0  0  0  0  0  0  0  0  0  0  0
   30.6248   34.8159   65.2231 C   0  0  0  0  0  0  0  0  0  0  0  0
   30.9655   36.2804   65.5017 C   0  0  2  0  0  0  0  0  0  0  0  0
   30.6948   36.6565   66.9377 C   0  0  1  0  0  0  0  0  0  0  0  0
   30.8070   35.7701   67.5619 H   0  0  0  0  0  0  0  0  0  0  0  0
   31.7058   37.6865   67.3713 C   0  0  0  0  0  0  0  0  0  0  0  0
   32.0966   37.7567   68.6954 C   0  0  0  0  0  0  0  0  0  0  0  0
   33.0276   38.6983   69.0923 C   0  0  0  0  0  0  0  0  0  0  0  0
   33.5599   39.5767   68.1670 C   0  0  0  0  0  0  0  0  0  0  0  0
   33.1652   39.5099   66.8440 C   0  0  0  0  0  0  0  0  0  0  0  0
   32.2381   38.5649   66.4461 C   0  0  0  0  0  0  0  0  0  0  0  0
   29.2911   37.2269   67.1363 C   0  0  0  0  0  0  0  0  0  0  0  0
   29.1245   37.6701   68.5300 C   0  0  0  0  0  0  0  0  0  0  0  0
   28.9959   38.0118   69.6057 N   0  0  0  0  0  0  0  0  0  0  0  0
   28.2841   36.2027   66.8141 C   0  0  0  0  0  0  0  0  0  0  0  0
   27.5070   35.4122   66.5655 N   0  0  0  0  0  0  0  0  0  0  0  0
   29.1403   38.4101   66.1984 C   0  0  0  0  0  0  0  0  0  0  0  0
   28.7425   39.5685   66.6149 N   0  0  0  0  0  0  0  0  0  0  0  0
   29.9190   37.4331   62.3797 H   0  0  0  0  0  0  0  0  0  0  0  0
   31.6048   36.9999   62.7711 H   0  0  0  0  0  0  0  0  0  0  0  0
   29.1603   35.1760   62.9635 H   0  0  0  0  0  0  0  0  0  0  0  0
   30.4820   35.0497   61.7803 H   0  0  0  0  0  0  0  0  0  0  0  0
   30.8225   33.4250   63.5901 H   0  0  0  0  0  0  0  0  0  0  0  0
   32.0884   34.6713   63.6491 H   0  0  0  0  0  0  0  0  0  0  0  0
   31.1738   34.1756   65.9136 H   0  0  0  0  0  0  0  0  0  0  0  0
   29.5537   34.6595   65.3511 H   0  0  0  0  0  0  0  0  0  0  0  0
   32.0403   36.3756   65.3471 H   0  0  0  0  0  0  0  0  0  0  0  0
   31.6774   37.0734   69.4191 H   0  0  0  0  0  0  0  0  0  0  0  0
   33.3357   38.7508   70.1261 H   0  0  0  0  0  0  0  0  0  0  0  0
   34.2840   40.3153   68.4780 H   0  0  0  0  0  0  0  0  0  0  0  0
   33.5808   40.1964   66.1212 H   0  0  0  0  0  0  0  0  0  0  0  0
   31.9295   38.5130   65.4124 H   0  0  0  0  0  0  0  0  0  0  0  0
   28.6566   40.3054   65.9899 H   0  0  0  0  0  0  0  0  0  0  0  0
  1  2  3  0  0  0  0
  2  3  1  0  0  0  0
  3 23  1  0  0  0  0
  3  4  2  0  0  0  0
  4  9  1  0  0  0  0
  4  5  1  0  0  0  0
  5  6  1  0  0  0  0
  5 25  1  0  0  0  0
  5 26  1  0  0  0  0
  6  7  1  0  0  0  0
  6 27  1  0  0  0  0
  6 28  1  0  0  0  0
  7  8  1  0  0  0  0
  7 29  1  0  0  0  0
  7 30  1  0  0  0  0
  8  9  1  0  0  0  0
  8 31  1  0  0  0  0
  8 32  1  0  0  0  0
  9 10  1  0  0  0  0
  9 33  1  6  0  0  0
 10 11  1  1  0  0  0
 10 12  1  0  0  0  0
 10 18  1  0  0  0  0
 12 17  2  0  0  0  0
 12 13  1  0  0  0  0
 13 14  2  0  0  0  0
 13 34  1  0  0  0  0
 14 15  1  0  0  0  0
 14 35  1  0  0  0  0
 15 16  2  0  0  0  0
 15 36  1  0  0  0  0
 16 17  1  0  0  0  0
 16 37  1  0  0  0  0
 17 38  1  0  0  0  0
 18 19  1  0  0  0  0
 18 21  1  0  0  0  0
 18 23  1  0  0  0  0
 19 20  3  0  0  0  0
 21 22  3  0  0  0  0
 23 24  2  0  0  0  0
 24 39  1  0  0  0  0
M  END
$$$$
