ZINC000000051733      none
 OpenBabel11202420153D

 22 22  0  0  0  0  0  0  0  0999 V2000
   32.9538   39.5347   58.2000 C   0  0  0  0  0  0  0  0  0  0  0  0
   32.4719   38.3234   58.9561 C   0  0  0  0  0  0  0  0  0  0  0  0
   32.8039   37.0601   58.5048 C   0  0  0  0  0  0  0  0  0  0  0  0
   32.3563   35.9516   59.2074 C   0  0  0  0  0  0  0  0  0  0  0  0
   32.6967   34.5576   58.7470 C   0  0  0  0  0  0  0  0  0  0  0  0
   31.5882   36.1558   60.3429 C   0  0  0  0  0  0  0  0  0  0  0  0
   30.9920   34.7849   61.2754 S   0  0  0  0  0  0  0  0  0  0  0  0
   32.1384   34.4330   62.4173 N   0  0  0  0  0  0  0  0  0  0  0  0
   30.9593   33.6778   60.3851 O   0  0  0  0  0  0  0  0  0  0  0  0
   29.8495   35.2470   61.9828 O   0  0  0  0  0  0  0  0  0  0  0  0
   31.2906   37.4499   60.7315 C   0  0  0  0  0  0  0  0  0  0  0  0
   30.3235   37.7200   62.1476 Cl  0  0  0  0  0  0  0  0  0  0  0  0
   31.7389   38.4814   60.0410 N   0  0  0  0  0  0  0  0  0  0  0  0
   32.2175   39.8077   57.4440 H   0  0  0  0  0  0  0  0  0  0  0  0
   33.0886   40.3655   58.8927 H   0  0  0  0  0  0  0  0  0  0  0  0
   33.9037   39.3070   57.7165 H   0  0  0  0  0  0  0  0  0  0  0  0
   33.4048   36.9378   57.6158 H   0  0  0  0  0  0  0  0  0  0  0  0
   31.9262   34.2028   58.0626 H   0  0  0  0  0  0  0  0  0  0  0  0
   33.6594   34.5686   58.2360 H   0  0  0  0  0  0  0  0  0  0  0  0
   32.7507   33.8932   59.6094 H   0  0  0  0  0  0  0  0  0  0  0  0
   32.9520   34.9590   62.4660 H   0  0  0  0  0  0  0  0  0  0  0  0
   31.9946   33.7034   63.0403 H   0  0  0  0  0  0  0  0  0  0  0  0
  1  2  1  0  0  0  0
  1 14  1  0  0  0  0
  1 15  1  0  0  0  0
  1 16  1  0  0  0  0
  2 13  2  0  0  0  0
  2  3  1  0  0  0  0
  3  4  2  0  0  0  0
  3 17  1  0  0  0  0
  4  5  1  0  0  0  0
  4  6  1  0  0  0  0
  5 18  1  0  0  0  0
  5 19  1  0  0  0  0
  5 20  1  0  0  0  0
  6  7  1  0  0  0  0
  6 11  2  0  0  0  0
  7  8  1  0  0  0  0
  7  9  2  0  0  0  0
  7 10  2  0  0  0  0
  8 21  1  0  0  0  0
  8 22  1  0  0  0  0
 11 12  1  0  0  0  0
 11 13  1  0  0  0  0
M  END
$$$$
