ZINC000000048480      none
 OpenBabel11202420153D

 32 35  0  0  0  0  0  0  0  0999 V2000
   35.0076   40.9199   53.5931 O   0  0  0  0  0  0  0  0  0  0  0  0
   34.9941   39.6112   53.4459 N   0  0  0  0  0  0  0  0  0  0  0  0
   35.4208   39.0704   52.3234 O   0  0  0  0  0  0  0  0  0  0  0  0
   34.4993   38.7481   54.5420 C   0  0  0  0  0  0  0  0  0  0  0  0
   34.4870   37.3735   54.3842 C   0  0  0  0  0  0  0  0  0  0  0  0
   34.0275   36.5635   55.4021 C   0  0  0  0  0  0  0  0  0  0  0  0
   33.5748   37.1332   56.5927 C   0  0  0  0  0  0  0  0  0  0  0  0
   33.0809   36.2705   57.6883 C   0  0  0  0  0  0  0  0  0  0  0  0
   32.6406   36.6939   58.8291 N   0  0  0  0  0  0  0  0  0  0  0  0
   32.2286   35.6997   59.7061 N   0  0  0  0  0  0  0  0  0  0  0  0
   31.6939   35.5541   61.0015 C   0  0  0  0  0  0  0  0  0  0  0  0
   31.3852   36.5874   61.9014 C   0  0  0  0  0  0  0  0  0  0  0  0
   31.4608   36.3638   63.2983 C   0  0  0  0  0  0  0  0  0  0  0  0
   31.1641   37.3743   64.1607 C   0  0  0  0  0  0  0  0  0  0  0  0
   30.7767   38.6232   63.6740 C   0  0  0  0  0  0  0  0  0  0  0  0
   30.4794   39.6171   64.5395 F   0  0  0  0  0  0  0  0  0  0  0  0
   30.6935   38.8536   62.3003 C   0  0  0  0  0  0  0  0  0  0  0  0
   30.9902   37.8596   61.4189 C   0  0  0  0  0  0  0  0  0  0  0  0
   31.5344   34.2243   61.2117 N   0  0  0  0  0  0  0  0  0  0  0  0
   31.9226   33.5837   60.1691 N   0  0  0  0  0  0  0  0  0  0  0  0
   32.3568   34.4611   59.2213 C   0  0  0  0  0  0  0  0  0  0  0  0
   33.0036   34.5162   57.6379 S   0  0  0  0  0  0  0  0  0  0  0  0
   33.5845   38.5205   56.7433 C   0  0  0  0  0  0  0  0  0  0  0  0
   34.0517   39.3193   55.7200 C   0  0  0  0  0  0  0  0  0  0  0  0
   34.8373   36.9339   53.4620 H   0  0  0  0  0  0  0  0  0  0  0  0
   34.0186   35.4907   55.2778 H   0  0  0  0  0  0  0  0  0  0  0  0
   31.7561   35.3966   63.6772 H   0  0  0  0  0  0  0  0  0  0  0  0
   31.2247   37.2073   65.2261 H   0  0  0  0  0  0  0  0  0  0  0  0
   30.3922   39.8242   61.9350 H   0  0  0  0  0  0  0  0  0  0  0  0
   30.9252   38.0402   60.3561 H   0  0  0  0  0  0  0  0  0  0  0  0
   33.2311   38.9677   57.6607 H   0  0  0  0  0  0  0  0  0  0  0  0
   34.0637   40.3927   55.8369 H   0  0  0  0  0  0  0  0  0  0  0  0
  1  2  2  0  0  0  0
  2  3  2  0  0  0  0
  2  4  1  0  0  0  0
  4 24  2  0  0  0  0
  4  5  1  0  0  0  0
  5  6  2  0  0  0  0
  5 25  1  0  0  0  0
  6  7  1  0  0  0  0
  6 26  1  0  0  0  0
  7  8  1  0  0  0  0
  7 23  2  0  0  0  0
  8 22  1  0  0  0  0
  8  9  2  0  0  0  0
  9 10  1  0  0  0  0
 10 21  1  0  0  0  0
 10 11  1  0  0  0  0
 11 12  1  0  0  0  0
 11 19  2  0  0  0  0
 12 18  2  0  0  0  0
 12 13  1  0  0  0  0
 13 14  2  0  0  0  0
 13 27  1  0  0  0  0
 14 15  1  0  0  0  0
 14 28  1  0  0  0  0
 15 16  1  0  0  0  0
 15 17  2  0  0  0  0
 17 18  1  0  0  0  0
 17 29  1  0  0  0  0
 18 30  1  0  0  0  0
 19 20  1  0  0  0  0
 20 21  2  0  0  0  0
 21 22  1  0  0  0  0
 23 24  1  0  0  0  0
 23 31  1  0  0  0  0
 24 32  1  0  0  0  0
M  END
$$$$
