ZINC000000035391      none
 OpenBabel11202420153D

 48 50  0  0  0  0  0  0  0  0999 V2000
   29.2230   32.1179   66.7740 C   0  0  0  0  0  0  0  0  0  0  0  0
   28.8337   33.3212   66.0266 N   0  0  0  0  0  0  0  0  0  0  0  0
   28.9729   34.5247   66.8572 C   0  0  0  0  0  0  0  0  0  0  0  0
   28.3900   35.7285   66.1090 C   0  0  0  0  0  0  0  0  0  0  0  0
   29.0265   35.8086   64.7853 N   0  0  0  0  0  0  0  0  0  0  0  0
   29.5764   36.9599   64.3512 C   0  0  0  0  0  0  0  0  0  0  0  0
   29.5504   37.9499   65.0565 O   0  0  0  0  0  0  0  0  0  0  0  0
   30.2099   37.0189   63.0203 C   0  0  0  0  0  0  0  0  0  0  0  0
   29.4604   36.7487   61.8728 C   0  0  0  0  0  0  0  0  0  0  0  0
   30.0578   36.8059   60.6323 C   0  0  0  0  0  0  0  0  0  0  0  0
   31.4001   37.1301   60.5164 C   0  0  0  0  0  0  0  0  0  0  0  0
   32.1534   37.3992   61.6411 C   0  0  0  0  0  0  0  0  0  0  0  0
   31.5668   37.3524   62.8989 C   0  0  0  0  0  0  0  0  0  0  0  0
   32.3237   37.6298   64.0348 N   0  0  0  0  0  0  0  0  0  0  0  0
   32.4681   36.6936   64.9937 C   0  0  0  0  0  0  0  0  0  0  0  0
   31.9389   35.6097   64.8672 O   0  0  0  0  0  0  0  0  0  0  0  0
   33.2868   36.9938   66.2226 C   0  0  0  0  0  0  0  0  0  0  0  0
   32.6885   38.1705   66.9497 C   0  0  0  0  0  0  0  0  0  0  0  0
   33.1048   39.4537   66.6480 C   0  0  0  0  0  0  0  0  0  0  0  0
   32.5526   40.5334   67.3116 C   0  0  0  0  0  0  0  0  0  0  0  0
   31.5916   40.3291   68.2841 C   0  0  0  0  0  0  0  0  0  0  0  0
   31.1792   39.0455   68.5896 C   0  0  0  0  0  0  0  0  0  0  0  0
   31.7276   37.9662   67.9222 C   0  0  0  0  0  0  0  0  0  0  0  0
   29.0478   34.5992   63.9487 C   0  0  0  0  0  0  0  0  0  0  0  0
   29.6052   33.4404   64.7822 C   0  0  0  0  0  0  0  0  0  0  0  0
   28.5847   32.0128   67.6513 H   0  0  0  0  0  0  0  0  0  0  0  0
   29.1104   31.2415   66.1358 H   0  0  0  0  0  0  0  0  0  0  0  0
   30.2626   32.2066   67.0896 H   0  0  0  0  0  0  0  0  0  0  0  0
   28.4349   34.3840   67.7947 H   0  0  0  0  0  0  0  0  0  0  0  0
   30.0277   34.7025   67.0663 H   0  0  0  0  0  0  0  0  0  0  0  0
   27.3141   35.5999   65.9903 H   0  0  0  0  0  0  0  0  0  0  0  0
   28.5931   36.6412   66.6693 H   0  0  0  0  0  0  0  0  0  0  0  0
   28.4140   36.4955   61.9577 H   0  0  0  0  0  0  0  0  0  0  0  0
   29.4772   36.5967   59.7461 H   0  0  0  0  0  0  0  0  0  0  0  0
   31.8596   37.1722   59.5400 H   0  0  0  0  0  0  0  0  0  0  0  0
   33.1989   37.6511   61.5426 H   0  0  0  0  0  0  0  0  0  0  0  0
   32.7469   38.4968   64.1358 H   0  0  0  0  0  0  0  0  0  0  0  0
   33.2889   36.1238   66.8793 H   0  0  0  0  0  0  0  0  0  0  0  0
   34.3097   37.2299   65.9290 H   0  0  0  0  0  0  0  0  0  0  0  0
   33.8588   39.6129   65.8914 H   0  0  0  0  0  0  0  0  0  0  0  0
   32.8750   41.5361   67.0734 H   0  0  0  0  0  0  0  0  0  0  0  0
   31.1635   41.1723   68.8056 H   0  0  0  0  0  0  0  0  0  0  0  0
   30.4288   38.8859   69.3496 H   0  0  0  0  0  0  0  0  0  0  0  0
   31.4057   36.9634   68.1610 H   0  0  0  0  0  0  0  0  0  0  0  0
   29.6857   34.7658   63.0806 H   0  0  0  0  0  0  0  0  0  0  0  0
   28.0353   34.3617   63.6223 H   0  0  0  0  0  0  0  0  0  0  0  0
   30.6513   33.6335   65.0198 H   0  0  0  0  0  0  0  0  0  0  0  0
   29.5261   32.5128   64.2150 H   0  0  0  0  0  0  0  0  0  0  0  0
  1  2  1  0  0  0  0
  1 26  1  0  0  0  0
  1 27  1  0  0  0  0
  1 28  1  0  0  0  0
  2 25  1  0  0  0  0
  2  3  1  0  0  0  0
  3  4  1  0  0  0  0
  3 29  1  0  0  0  0
  3 30  1  0  0  0  0
  4  5  1  0  0  0  0
  4 31  1  0  0  0  0
  4 32  1  0  0  0  0
  5  6  1  0  0  0  0
  5 24  1  0  0  0  0
  6  7  2  0  0  0  0
  6  8  1  0  0  0  0
  8 13  2  0  0  0  0
  8  9  1  0  0  0  0
  9 10  2  0  0  0  0
  9 33  1  0  0  0  0
 10 11  1  0  0  0  0
 10 34  1  0  0  0  0
 11 12  2  0  0  0  0
 11 35  1  0  0  0  0
 12 13  1  0  0  0  0
 12 36  1  0  0  0  0
 13 14  1  0  0  0  0
 14 15  1  0  0  0  0
 14 37  1  0  0  0  0
 15 16  2  0  0  0  0
 15 17  1  0  0  0  0
 17 18  1  0  0  0  0
 17 38  1  0  0  0  0
 17 39  1  0  0  0  0
 18 23  2  0  0  0  0
 18 19  1  0  0  0  0
 19 20  2  0  0  0  0
 19 40  1  0  0  0  0
 20 21  1  0  0  0  0
 20 41  1  0  0  0  0
 21 22  2  0  0  0  0
 21 42  1  0  0  0  0
 22 23  1  0  0  0  0
 22 43  1  0  0  0  0
 23 44  1  0  0  0  0
 24 25  1  0  0  0  0
 24 45  1  0  0  0  0
 24 46  1  0  0  0  0
 25 47  1  0  0  0  0
 25 48  1  0  0  0  0
M  END
$$$$
