ZINC000000036689      none
 OpenBabel11202420153D

 42 44  0  0  0  0  0  0  0  0999 V2000
   34.9562   32.2019   55.4126 C   0  0  0  0  0  0  0  0  0  0  0  0
   34.2624   32.4573   54.0732 C   0  0  0  0  0  0  0  0  0  0  0  0
   33.2002   33.4304   54.2560 O   0  0  0  0  0  0  0  0  0  0  0  0
   33.5269   34.7295   54.1014 C   0  0  0  0  0  0  0  0  0  0  0  0
   33.9685   35.1231   53.0393 O   0  0  0  0  0  0  0  0  0  0  0  0
   33.3493   35.6691   55.2164 C   0  0  0  0  0  0  0  0  0  0  0  0
   33.6463   37.0181   55.1823 N   0  0  0  0  0  0  0  0  0  0  0  0
   34.0085   37.4977   54.4210 H   0  0  0  0  0  0  0  0  0  0  0  0
   33.3490   37.5680   56.4088 C   0  0  0  0  0  0  0  0  0  0  0  0
   33.4503   38.8587   56.9206 C   0  0  0  0  0  0  0  0  0  0  0  0
   33.0680   39.1174   58.2168 C   0  0  0  0  0  0  0  0  0  0  0  0
   32.5783   38.0963   59.0294 C   0  0  0  0  0  0  0  0  0  0  0  0
   32.2055   38.3697   60.3083 O   0  0  0  0  0  0  0  0  0  0  0  0
   31.7121   37.2782   61.0875 C   0  0  0  0  0  0  0  0  0  0  0  0
   31.3514   37.7680   62.4663 C   0  0  0  0  0  0  0  0  0  0  0  0
   32.2968   37.7519   63.4748 C   0  0  0  0  0  0  0  0  0  0  0  0
   31.9673   38.2056   64.7382 C   0  0  0  0  0  0  0  0  0  0  0  0
   30.6896   38.6658   64.9961 C   0  0  0  0  0  0  0  0  0  0  0  0
   29.7427   38.6769   63.9890 C   0  0  0  0  0  0  0  0  0  0  0  0
   30.0736   38.2280   62.7241 C   0  0  0  0  0  0  0  0  0  0  0  0
   32.4693   36.8110   58.5437 C   0  0  0  0  0  0  0  0  0  0  0  0
   32.8544   36.5325   57.2251 C   0  0  0  0  0  0  0  0  0  0  0  0
   32.8667   35.3503   56.4468 C   0  0  0  0  0  0  0  0  0  0  0  0
   32.4245   33.9830   56.9008 C   0  0  0  0  0  0  0  0  0  0  0  0
   34.2311   31.8177   56.1299 H   0  0  0  0  0  0  0  0  0  0  0  0
   35.7536   31.4716   55.2754 H   0  0  0  0  0  0  0  0  0  0  0  0
   35.3783   33.1346   55.7868 H   0  0  0  0  0  0  0  0  0  0  0  0
   33.8404   31.5247   53.6990 H   0  0  0  0  0  0  0  0  0  0  0  0
   34.9877   32.8417   53.3558 H   0  0  0  0  0  0  0  0  0  0  0  0
   33.8291   39.6573   56.3000 H   0  0  0  0  0  0  0  0  0  0  0  0
   33.1486   40.1207   58.6082 H   0  0  0  0  0  0  0  0  0  0  0  0
   30.8273   36.8598   60.6076 H   0  0  0  0  0  0  0  0  0  0  0  0
   32.4813   36.5097   61.1645 H   0  0  0  0  0  0  0  0  0  0  0  0
   33.2938   37.3883   63.2745 H   0  0  0  0  0  0  0  0  0  0  0  0
   32.7070   38.1966   65.5252 H   0  0  0  0  0  0  0  0  0  0  0  0
   30.4309   39.0161   65.9845 H   0  0  0  0  0  0  0  0  0  0  0  0
   28.7443   39.0360   64.1905 H   0  0  0  0  0  0  0  0  0  0  0  0
   29.3337   38.2364   61.9374 H   0  0  0  0  0  0  0  0  0  0  0  0
   32.0887   36.0223   59.1759 H   0  0  0  0  0  0  0  0  0  0  0  0
   33.2729   33.4514   57.3321 H   0  0  0  0  0  0  0  0  0  0  0  0
   31.6404   34.0852   57.6510 H   0  0  0  0  0  0  0  0  0  0  0  0
   32.0406   33.4235   56.0479 H   0  0  0  0  0  0  0  0  0  0  0  0
  1  2  1  0  0  0  0
  1 25  1  0  0  0  0
  1 26  1  0  0  0  0
  1 27  1  0  0  0  0
  2  3  1  0  0  0  0
  2 28  1  0  0  0  0
  2 29  1  0  0  0  0
  3  4  1  0  0  0  0
  4  5  2  0  0  0  0
  4  6  1  0  0  0  0
  6 23  2  0  0  0  0
  6  7  1  0  0  0  0
  7  8  1  0  0  0  0
  7  9  1  0  0  0  0
  9 22  2  0  0  0  0
  9 10  1  0  0  0  0
 10 11  2  0  0  0  0
 10 30  1  0  0  0  0
 11 12  1  0  0  0  0
 11 31  1  0  0  0  0
 12 13  1  0  0  0  0
 12 21  2  0  0  0  0
 13 14  1  0  0  0  0
 14 15  1  0  0  0  0
 14 32  1  0  0  0  0
 14 33  1  0  0  0  0
 15 20  2  0  0  0  0
 15 16  1  0  0  0  0
 16 17  2  0  0  0  0
 16 34  1  0  0  0  0
 17 18  1  0  0  0  0
 17 35  1  0  0  0  0
 18 19  2  0  0  0  0
 18 36  1  0  0  0  0
 19 20  1  0  0  0  0
 19 37  1  0  0  0  0
 20 38  1  0  0  0  0
 21 22  1  0  0  0  0
 21 39  1  0  0  0  0
 22 23  1  0  0  0  0
 23 24  1  0  0  0  0
 24 40  1  0  0  0  0
 24 41  1  0  0  0  0
 24 42  1  0  0  0  0
M  END
$$$$
