ZINC000000033561      none
 OpenBabel11202420153D

 39 41  0  0  1  0  0  0  0  0999 V2000
   30.9062   32.8804   58.9319 O   0  0  0  0  0  0  0  0  0  0  0  0
   31.5567   33.7901   58.4582 C   0  0  0  0  0  0  0  0  0  0  0  0
   32.1263   33.8247   57.0947 C   0  0  0  0  0  0  0  0  0  0  0  0
   32.1198   32.9493   56.0207 C   0  0  0  0  0  0  0  0  0  0  0  0
   32.7753   33.2941   54.8491 C   0  0  0  0  0  0  0  0  0  0  0  0
   33.4338   34.5050   54.7449 C   0  0  0  0  0  0  0  0  0  0  0  0
   33.4483   35.3909   55.8109 C   0  0  0  0  0  0  0  0  0  0  0  0
   32.7978   35.0594   56.9885 C   0  0  0  0  0  0  0  0  0  0  0  0
   32.6093   35.7354   58.2894 C   0  0  0  0  0  0  0  0  0  0  0  0
   33.0430   36.8296   58.5890 O   0  0  0  0  0  0  0  0  0  0  0  0
   31.8769   34.9361   59.0858 N   0  0  0  0  0  0  0  0  0  0  0  0
   31.4848   35.2674   60.4579 C   0  0  0  0  0  0  0  0  0  0  0  0
   30.6398   36.5428   60.4531 C   0  0  1  0  0  0  0  0  0  0  0  0
   31.0565   37.2521   59.7379 H   0  0  0  0  0  0  0  0  0  0  0  0
   29.2977   36.2238   60.0807 O   0  0  0  0  0  0  0  0  0  0  0  0
   30.6471   37.1647   61.8510 C   0  0  0  0  0  0  0  0  0  0  0  0
   31.9566   37.0575   62.4132 O   0  0  0  0  0  0  0  0  0  0  0  0
   32.1357   37.5653   63.6609 C   0  0  0  0  0  0  0  0  0  0  0  0
   33.0819   37.0079   64.5088 C   0  0  0  0  0  0  0  0  0  0  0  0
   33.2626   37.5263   65.7765 C   0  0  0  0  0  0  0  0  0  0  0  0
   32.5014   38.5998   66.2005 C   0  0  0  0  0  0  0  0  0  0  0  0
   32.6970   39.1534   67.5591 N   0  0  0  0  0  0  0  0  0  0  0  0
   33.5280   38.6632   68.3026 O   0  0  0  0  0  0  0  0  0  0  0  0
   32.0305   40.1022   67.9320 O   0  0  0  0  0  0  0  0  0  0  0  0
   31.5539   39.1537   65.3594 C   0  0  0  0  0  0  0  0  0  0  0  0
   31.3733   38.6425   64.0888 C   0  0  0  0  0  0  0  0  0  0  0  0
   31.6069   32.0018   56.0965 H   0  0  0  0  0  0  0  0  0  0  0  0
   32.7710   32.6122   54.0116 H   0  0  0  0  0  0  0  0  0  0  0  0
   33.9403   34.7627   53.8265 H   0  0  0  0  0  0  0  0  0  0  0  0
   33.9648   36.3354   55.7239 H   0  0  0  0  0  0  0  0  0  0  0  0
   32.3776   35.4253   61.0629 H   0  0  0  0  0  0  0  0  0  0  0  0
   30.9022   34.4472   60.8773 H   0  0  0  0  0  0  0  0  0  0  0  0
   28.8634   35.5960   60.6745 H   0  0  0  0  0  0  0  0  0  0  0  0
   29.9347   36.6387   62.4864 H   0  0  0  0  0  0  0  0  0  0  0  0
   30.3662   38.2156   61.7825 H   0  0  0  0  0  0  0  0  0  0  0  0
   33.6764   36.1691   64.1780 H   0  0  0  0  0  0  0  0  0  0  0  0
   33.9986   37.0924   66.4369 H   0  0  0  0  0  0  0  0  0  0  0  0
   30.9573   39.9892   65.6947 H   0  0  0  0  0  0  0  0  0  0  0  0
   30.6363   39.0782   63.4306 H   0  0  0  0  0  0  0  0  0  0  0  0
  1  2  2  0  0  0  0
  2 11  1  0  0  0  0
  2  3  1  0  0  0  0
  3  8  2  0  0  0  0
  3  4  1  0  0  0  0
  4  5  2  0  0  0  0
  4 27  1  0  0  0  0
  5  6  1  0  0  0  0
  5 28  1  0  0  0  0
  6  7  2  0  0  0  0
  6 29  1  0  0  0  0
  7  8  1  0  0  0  0
  7 30  1  0  0  0  0
  8  9  1  0  0  0  0
  9 10  2  0  0  0  0
  9 11  1  0  0  0  0
 11 12  1  0  0  0  0
 12 13  1  0  0  0  0
 12 31  1  0  0  0  0
 12 32  1  0  0  0  0
 13 14  1  6  0  0  0
 13 15  1  0  0  0  0
 13 16  1  0  0  0  0
 15 33  1  0  0  0  0
 16 17  1  0  0  0  0
 16 34  1  0  0  0  0
 16 35  1  0  0  0  0
 17 18  1  0  0  0  0
 18 26  2  0  0  0  0
 18 19  1  0  0  0  0
 19 20  2  0  0  0  0
 19 36  1  0  0  0  0
 20 21  1  0  0  0  0
 20 37  1  0  0  0  0
 21 22  1  0  0  0  0
 21 25  2  0  0  0  0
 22 23  2  0  0  0  0
 22 24  2  0  0  0  0
 25 26  1  0  0  0  0
 25 38  1  0  0  0  0
 26 39  1  0  0  0  0
M  END
$$$$
