ZINC000000053170      none
 OpenBabel11202420153D

 31 33  0  0  0  0  0  0  0  0999 V2000
   33.0904   33.5177   55.3907 Cl  0  0  0  0  0  0  0  0  0  0  0  0
   33.1779   35.0650   56.1732 C   0  0  0  0  0  0  0  0  0  0  0  0
   32.7901   35.1912   57.4317 N   0  0  0  0  0  0  0  0  0  0  0  0
   32.8564   36.3760   58.0329 C   0  0  0  0  0  0  0  0  0  0  0  0
   32.4524   36.5081   59.3458 N   0  0  0  0  0  0  0  0  0  0  0  0
   31.4642   35.4805   59.6980 C   0  0  0  0  0  0  0  0  0  0  0  0
   31.1490   35.5654   61.1933 C   0  0  0  0  0  0  0  0  0  0  0  0
   30.6017   36.9584   61.5162 C   0  0  0  0  0  0  0  0  0  0  0  0
   31.6297   38.0123   61.0953 C   0  0  0  0  0  0  0  0  0  0  0  0
   31.9309   37.8565   59.6030 C   0  0  0  0  0  0  0  0  0  0  0  0
   33.3173   37.4314   57.3690 N   0  0  0  0  0  0  0  0  0  0  0  0
   33.7007   37.3016   56.1058 C   0  0  0  0  0  0  0  0  0  0  0  0
   34.1799   38.4059   55.4065 N   0  0  0  0  0  0  0  0  0  0  0  0
   34.6154   38.4221   54.1046 C   0  0  0  0  0  0  0  0  0  0  0  0
   34.9847   39.6873   53.8334 C   0  0  0  0  0  0  0  0  0  0  0  0
   34.7920   40.4269   54.9364 N   0  0  0  0  0  0  0  0  0  0  0  0
   34.3108   39.6728   55.8853 C   0  0  0  0  0  0  0  0  0  0  0  0
   33.6326   36.1159   55.5099 N   0  0  0  0  0  0  0  0  0  0  0  0
   30.5516   35.6426   59.1247 H   0  0  0  0  0  0  0  0  0  0  0  0
   31.8676   34.4945   59.4674 H   0  0  0  0  0  0  0  0  0  0  0  0
   32.0587   35.3896   61.7675 H   0  0  0  0  0  0  0  0  0  0  0  0
   30.4040   34.8128   61.4514 H   0  0  0  0  0  0  0  0  0  0  0  0
   30.4164   37.0377   62.5874 H   0  0  0  0  0  0  0  0  0  0  0  0
   29.6708   37.1201   60.9727 H   0  0  0  0  0  0  0  0  0  0  0  0
   32.5469   37.8750   61.6680 H   0  0  0  0  0  0  0  0  0  0  0  0
   31.2280   39.0079   61.2835 H   0  0  0  0  0  0  0  0  0  0  0  0
   32.6732   38.5961   59.3032 H   0  0  0  0  0  0  0  0  0  0  0  0
   31.0159   38.0073   59.0303 H   0  0  0  0  0  0  0  0  0  0  0  0
   34.6524   37.5816   53.4275 H   0  0  0  0  0  0  0  0  0  0  0  0
   35.3739   40.0450   52.8916 H   0  0  0  0  0  0  0  0  0  0  0  0
   34.0590   39.9990   56.8837 H   0  0  0  0  0  0  0  0  0  0  0  0
  1  2  1  0  0  0  0
  2 18  2  0  0  0  0
  2  3  1  0  0  0  0
  3  4  2  0  0  0  0
  4  5  1  0  0  0  0
  4 11  1  0  0  0  0
  5 10  1  0  0  0  0
  5  6  1  0  0  0  0
  6  7  1  0  0  0  0
  6 19  1  0  0  0  0
  6 20  1  0  0  0  0
  7  8  1  0  0  0  0
  7 21  1  0  0  0  0
  7 22  1  0  0  0  0
  8  9  1  0  0  0  0
  8 23  1  0  0  0  0
  8 24  1  0  0  0  0
  9 10  1  0  0  0  0
  9 25  1  0  0  0  0
  9 26  1  0  0  0  0
 10 27  1  0  0  0  0
 10 28  1  0  0  0  0
 11 12  2  0  0  0  0
 12 13  1  0  0  0  0
 12 18  1  0  0  0  0
 13 17  1  0  0  0  0
 13 14  1  0  0  0  0
 14 15  2  0  0  0  0
 14 29  1  0  0  0  0
 15 16  1  0  0  0  0
 15 30  1  0  0  0  0
 16 17  2  0  0  0  0
 17 31  1  0  0  0  0
M  END
$$$$
