ZINC000000052684      none
 OpenBabel11202420153D

 25 25  0  0  0  0  0  0  0  0999 V2000
   31.9243   37.0871   61.0995 C   0  0  0  0  0  0  0  0  0  0  0  0
   32.4445   37.9733   60.1065 O   0  0  0  0  0  0  0  0  0  0  0  0
   32.7317   37.4391   58.8956 C   0  0  0  0  0  0  0  0  0  0  0  0
   32.5265   36.1506   58.6803 N   0  0  0  0  0  0  0  0  0  0  0  0
   32.7922   35.5894   57.5168 C   0  0  0  0  0  0  0  0  0  0  0  0
   32.5372   34.1158   57.3306 C   0  0  0  0  0  0  0  0  0  0  0  0
   33.2954   36.3304   56.4623 C   0  0  0  0  0  0  0  0  0  0  0  0
   33.5348   37.6820   56.6337 C   0  0  0  0  0  0  0  0  0  0  0  0
   34.0877   38.5173   55.5077 C   0  0  0  0  0  0  0  0  0  0  0  0
   33.2453   38.2559   57.8773 C   0  0  0  0  0  0  0  0  0  0  0  0
   33.4768   39.6937   58.1130 C   0  0  0  0  0  0  0  0  0  0  0  0
   33.1942   40.2336   59.3152 N   0  0  0  0  0  0  0  0  0  0  0  0
   33.9225   40.3917   57.2228 O   0  0  0  0  0  0  0  0  0  0  0  0
   30.9914   36.6500   60.7437 H   0  0  0  0  0  0  0  0  0  0  0  0
   32.6466   36.2941   61.2932 H   0  0  0  0  0  0  0  0  0  0  0  0
   31.7382   37.6415   62.0194 H   0  0  0  0  0  0  0  0  0  0  0  0
   31.5201   33.9661   56.9685 H   0  0  0  0  0  0  0  0  0  0  0  0
   33.2442   33.7136   56.6050 H   0  0  0  0  0  0  0  0  0  0  0  0
   32.6628   33.6021   58.2837 H   0  0  0  0  0  0  0  0  0  0  0  0
   33.5036   35.8566   55.5144 H   0  0  0  0  0  0  0  0  0  0  0  0
   35.1767   38.5135   55.5534 H   0  0  0  0  0  0  0  0  0  0  0  0
   33.7236   39.5404   55.6016 H   0  0  0  0  0  0  0  0  0  0  0  0
   33.7625   38.1020   54.5538 H   0  0  0  0  0  0  0  0  0  0  0  0
   32.8386   39.6767   60.0254 H   0  0  0  0  0  0  0  0  0  0  0  0
   33.3464   41.1790   59.4701 H   0  0  0  0  0  0  0  0  0  0  0  0
  1  2  1  0  0  0  0
  1 14  1  0  0  0  0
  1 15  1  0  0  0  0
  1 16  1  0  0  0  0
  2  3  1  0  0  0  0
  3 10  2  0  0  0  0
  3  4  1  0  0  0  0
  4  5  2  0  0  0  0
  5  6  1  0  0  0  0
  5  7  1  0  0  0  0
  6 17  1  0  0  0  0
  6 18  1  0  0  0  0
  6 19  1  0  0  0  0
  7  8  2  0  0  0  0
  7 20  1  0  0  0  0
  8  9  1  0  0  0  0
  8 10  1  0  0  0  0
  9 21  1  0  0  0  0
  9 22  1  0  0  0  0
  9 23  1  0  0  0  0
 10 11  1  0  0  0  0
 11 12  1  0  0  0  0
 11 13  2  0  0  0  0
 12 24  1  0  0  0  0
 12 25  1  0  0  0  0
M  END
$$$$
