ZINC000000037928      none
 OpenBabel11202420153D

 41 42  0  0  0  0  0  0  0  0999 V2000
   33.9699   39.9681   56.0069 C   0  0  0  0  0  0  0  0  0  0  0  0
   33.4989   38.8834   56.9411 C   0  0  0  0  0  0  0  0  0  0  0  0
   33.1066   39.2032   58.2281 C   0  0  0  0  0  0  0  0  0  0  0  0
   32.6740   38.2110   59.0861 C   0  0  0  0  0  0  0  0  0  0  0  0
   32.6338   36.8924   58.6560 C   0  0  0  0  0  0  0  0  0  0  0  0
   32.2086   35.9144   59.4984 O   0  0  0  0  0  0  0  0  0  0  0  0
   30.8771   36.0279   60.0047 C   0  0  0  0  0  0  0  0  0  0  0  0
   30.8942   36.8119   61.2915 C   0  0  0  0  0  0  0  0  0  0  0  0
   29.9336   37.4822   61.6062 O   0  0  0  0  0  0  0  0  0  0  0  0
   31.9771   36.7684   62.0928 N   0  0  0  0  0  0  0  0  0  0  0  0
   31.9955   37.5012   63.2847 C   0  0  0  0  0  0  0  0  0  0  0  0
   32.7225   37.0398   64.3741 C   0  0  0  0  0  0  0  0  0  0  0  0
   32.7435   37.7686   65.5471 C   0  0  0  0  0  0  0  0  0  0  0  0
   32.0316   38.9506   65.6412 C   0  0  0  0  0  0  0  0  0  0  0  0
   32.0545   39.8734   67.1421 S   0  0  0  0  0  0  0  0  0  0  0  0
   33.3252   40.9318   67.0473 N   0  0  0  0  0  0  0  0  0  0  0  0
   30.8739   40.6633   67.1456 O   0  0  0  0  0  0  0  0  0  0  0  0
   32.3769   38.9520   68.1749 O   0  0  0  0  0  0  0  0  0  0  0  0
   31.3019   39.4096   64.5604 C   0  0  0  0  0  0  0  0  0  0  0  0
   31.2818   38.6886   63.3825 C   0  0  0  0  0  0  0  0  0  0  0  0
   33.0336   36.5734   57.3666 C   0  0  0  0  0  0  0  0  0  0  0  0
   32.9969   35.1416   56.8983 C   0  0  0  0  0  0  0  0  0  0  0  0
   33.4592   37.5705   56.5101 C   0  0  0  0  0  0  0  0  0  0  0  0
   35.0478   40.0931   56.1095 H   0  0  0  0  0  0  0  0  0  0  0  0
   33.7323   39.6912   54.9797 H   0  0  0  0  0  0  0  0  0  0  0  0
   33.4702   40.9042   56.2557 H   0  0  0  0  0  0  0  0  0  0  0  0
   33.1381   40.2297   58.5624 H   0  0  0  0  0  0  0  0  0  0  0  0
   32.3679   38.4612   60.0911 H   0  0  0  0  0  0  0  0  0  0  0  0
   30.4730   35.0327   60.1908 H   0  0  0  0  0  0  0  0  0  0  0  0
   30.2532   36.5425   59.2739 H   0  0  0  0  0  0  0  0  0  0  0  0
   32.7454   36.2324   61.8412 H   0  0  0  0  0  0  0  0  0  0  0  0
   33.2746   36.1143   64.3028 H   0  0  0  0  0  0  0  0  0  0  0  0
   33.3126   37.4126   66.3932 H   0  0  0  0  0  0  0  0  0  0  0  0
   33.2817   41.7841   67.5082 H   0  0  0  0  0  0  0  0  0  0  0  0
   34.1127   40.6992   66.5308 H   0  0  0  0  0  0  0  0  0  0  0  0
   30.7474   40.3330   64.6369 H   0  0  0  0  0  0  0  0  0  0  0  0
   30.7117   39.0477   62.5385 H   0  0  0  0  0  0  0  0  0  0  0  0
   32.0246   34.9295   56.4536 H   0  0  0  0  0  0  0  0  0  0  0  0
   33.7787   34.9821   56.1555 H   0  0  0  0  0  0  0  0  0  0  0  0
   33.1611   34.4774   57.7468 H   0  0  0  0  0  0  0  0  0  0  0  0
   33.7657   37.3234   55.5044 H   0  0  0  0  0  0  0  0  0  0  0  0
  1  2  1  0  0  0  0
  1 24  1  0  0  0  0
  1 25  1  0  0  0  0
  1 26  1  0  0  0  0
  2 23  2  0  0  0  0
  2  3  1  0  0  0  0
  3  4  2  0  0  0  0
  3 27  1  0  0  0  0
  4  5  1  0  0  0  0
  4 28  1  0  0  0  0
  5  6  1  0  0  0  0
  5 21  2  0  0  0  0
  6  7  1  0  0  0  0
  7  8  1  0  0  0  0
  7 29  1  0  0  0  0
  7 30  1  0  0  0  0
  8  9  2  0  0  0  0
  8 10  1  0  0  0  0
 10 11  1  0  0  0  0
 10 31  1  0  0  0  0
 11 20  2  0  0  0  0
 11 12  1  0  0  0  0
 12 13  2  0  0  0  0
 12 32  1  0  0  0  0
 13 14  1  0  0  0  0
 13 33  1  0  0  0  0
 14 15  1  0  0  0  0
 14 19  2  0  0  0  0
 15 16  1  0  0  0  0
 15 17  2  0  0  0  0
 15 18  2  0  0  0  0
 16 34  1  0  0  0  0
 16 35  1  0  0  0  0
 19 20  1  0  0  0  0
 19 36  1  0  0  0  0
 20 37  1  0  0  0  0
 21 22  1  0  0  0  0
 21 23  1  0  0  0  0
 22 38  1  0  0  0  0
 22 39  1  0  0  0  0
 22 40  1  0  0  0  0
 23 41  1  0  0  0  0
M  END
$$$$
