ZINC000000028513      none
 OpenBabel11202420163D

 43 45  0  0  0  0  0  0  0  0999 V2000
   32.4886   34.2116   60.4771 O   0  0  0  0  0  0  0  0  0  0  0  0
   31.7934   35.2018   60.3602 C   0  0  0  0  0  0  0  0  0  0  0  0
   30.7933   35.4301   61.2344 N   0  0  0  0  0  0  0  0  0  0  0  0
   30.5566   34.5320   62.2712 C   0  0  0  0  0  0  0  0  0  0  0  0
   30.8540   33.1852   62.1092 C   0  0  0  0  0  0  0  0  0  0  0  0
   30.6125   32.2954   63.1363 C   0  0  0  0  0  0  0  0  0  0  0  0
   30.0790   32.7375   64.3363 C   0  0  0  0  0  0  0  0  0  0  0  0
   29.7831   34.0712   64.5172 C   0  0  0  0  0  0  0  0  0  0  0  0
   30.0213   34.9837   63.4867 C   0  0  0  0  0  0  0  0  0  0  0  0
   29.7064   36.4126   63.6735 C   0  0  0  0  0  0  0  0  0  0  0  0
   28.9008   36.9580   62.9439 O   0  0  0  0  0  0  0  0  0  0  0  0
   30.3113   37.1136   64.6527 N   0  0  0  0  0  0  0  0  0  0  0  0
   31.2822   36.4671   65.5462 C   0  0  0  0  0  0  0  0  0  0  0  0
   32.5845   37.2816   65.5238 C   0  0  0  0  0  0  0  0  0  0  0  0
   32.2751   38.7373   65.8806 C   0  0  0  0  0  0  0  0  0  0  0  0
   31.3204   39.3275   64.8402 C   0  0  0  0  0  0  0  0  0  0  0  0
   30.0080   38.5376   64.8511 C   0  0  0  0  0  0  0  0  0  0  0  0
   32.0447   36.1556   59.2594 C   0  0  0  0  0  0  0  0  0  0  0  0
   31.6927   37.4992   59.4017 C   0  0  0  0  0  0  0  0  0  0  0  0
   31.9341   38.3855   58.3727 C   0  0  0  0  0  0  0  0  0  0  0  0
   32.5143   37.9440   57.1967 C   0  0  0  0  0  0  0  0  0  0  0  0
   32.8613   36.6122   57.0463 C   0  0  0  0  0  0  0  0  0  0  0  0
   33.5893   36.0681   55.5674 Cl  0  0  0  0  0  0  0  0  0  0  0  0
   32.6297   35.7158   58.0711 C   0  0  0  0  0  0  0  0  0  0  0  0
   30.2386   36.2204   61.1412 H   0  0  0  0  0  0  0  0  0  0  0  0
   31.2699   32.8329   61.1768 H   0  0  0  0  0  0  0  0  0  0  0  0
   30.8412   31.2482   63.0040 H   0  0  0  0  0  0  0  0  0  0  0  0
   29.8946   32.0333   65.1341 H   0  0  0  0  0  0  0  0  0  0  0  0
   29.3671   34.4105   65.4543 H   0  0  0  0  0  0  0  0  0  0  0  0
   30.8831   36.4385   66.5600 H   0  0  0  0  0  0  0  0  0  0  0  0
   31.4782   35.4524   65.1996 H   0  0  0  0  0  0  0  0  0  0  0  0
   33.0274   37.2371   64.5288 H   0  0  0  0  0  0  0  0  0  0  0  0
   33.2827   36.8690   66.2522 H   0  0  0  0  0  0  0  0  0  0  0  0
   33.2006   39.3129   65.8921 H   0  0  0  0  0  0  0  0  0  0  0  0
   31.8097   38.7789   66.8653 H   0  0  0  0  0  0  0  0  0  0  0  0
   31.7753   39.2637   63.8515 H   0  0  0  0  0  0  0  0  0  0  0  0
   31.1190   40.3711   65.0818 H   0  0  0  0  0  0  0  0  0  0  0  0
   29.3630   38.8893   64.0460 H   0  0  0  0  0  0  0  0  0  0  0  0
   29.5071   38.6744   65.8095 H   0  0  0  0  0  0  0  0  0  0  0  0
   31.2359   37.8447   60.3174 H   0  0  0  0  0  0  0  0  0  0  0  0
   31.6658   39.4257   58.4837 H   0  0  0  0  0  0  0  0  0  0  0  0
   32.6977   38.6415   56.3928 H   0  0  0  0  0  0  0  0  0  0  0  0
   32.9010   34.6771   57.9532 H   0  0  0  0  0  0  0  0  0  0  0  0
  1  2  2  0  0  0  0
  2  3  1  0  0  0  0
  2 18  1  0  0  0  0
  3  4  1  0  0  0  0
  3 25  1  0  0  0  0
  4  9  2  0  0  0  0
  4  5  1  0  0  0  0
  5  6  2  0  0  0  0
  5 26  1  0  0  0  0
  6  7  1  0  0  0  0
  6 27  1  0  0  0  0
  7  8  2  0  0  0  0
  7 28  1  0  0  0  0
  8  9  1  0  0  0  0
  8 29  1  0  0  0  0
  9 10  1  0  0  0  0
 10 11  2  0  0  0  0
 10 12  1  0  0  0  0
 12 17  1  0  0  0  0
 12 13  1  0  0  0  0
 13 14  1  0  0  0  0
 13 30  1  0  0  0  0
 13 31  1  0  0  0  0
 14 15  1  0  0  0  0
 14 32  1  0  0  0  0
 14 33  1  0  0  0  0
 15 16  1  0  0  0  0
 15 34  1  0  0  0  0
 15 35  1  0  0  0  0
 16 17  1  0  0  0  0
 16 36  1  0  0  0  0
 16 37  1  0  0  0  0
 17 38  1  0  0  0  0
 17 39  1  0  0  0  0
 18 24  2  0  0  0  0
 18 19  1  0  0  0  0
 19 20  2  0  0  0  0
 19 40  1  0  0  0  0
 20 21  1  0  0  0  0
 20 41  1  0  0  0  0
 21 22  2  0  0  0  0
 21 42  1  0  0  0  0
 22 23  1  0  0  0  0
 22 24  1  0  0  0  0
 24 43  1  0  0  0  0
M  END
$$$$
