ZINC000000023542      none
 OpenBabel11202420153D

 40 41  0  0  1  0  0  0  0  0999 V2000
   29.0323   37.2713   62.0458 C   0  0  0  0  0  0  0  0  0  0  0  0
   30.5106   36.9733   62.3039 C   0  0  1  0  0  0  0  0  0  0  0  0
   30.7636   35.9995   61.8847 H   0  0  0  0  0  0  0  0  0  0  0  0
   31.3347   38.0063   61.6714 N   0  0  0  0  0  0  0  0  0  0  0  0
   31.7569   37.8474   60.4013 C   0  0  0  0  0  0  0  0  0  0  0  0
   31.4539   36.8467   59.7806 O   0  0  0  0  0  0  0  0  0  0  0  0
   32.5151   38.7976   59.8193 N   0  0  0  0  0  0  0  0  0  0  0  0
   32.9535   38.6327   58.5007 C   0  0  0  0  0  0  0  0  0  0  0  0
   33.1794   37.3585   57.9976 C   0  0  0  0  0  0  0  0  0  0  0  0
   33.6124   37.1975   56.6935 C   0  0  0  0  0  0  0  0  0  0  0  0
   33.8324   35.9579   56.2033 F   0  0  0  0  0  0  0  0  0  0  0  0
   33.8205   38.3061   55.8902 C   0  0  0  0  0  0  0  0  0  0  0  0
   33.5957   39.5777   56.3901 C   0  0  0  0  0  0  0  0  0  0  0  0
   33.7998   40.6577   55.6046 F   0  0  0  0  0  0  0  0  0  0  0  0
   33.1627   39.7429   57.6937 C   0  0  0  0  0  0  0  0  0  0  0  0
   30.7733   36.9635   63.8112 C   0  0  0  0  0  0  0  0  0  0  0  0
   30.4183   38.3304   64.3997 C   0  0  0  0  0  0  0  0  0  0  0  0
   30.6810   38.3206   65.9069 C   0  0  0  0  0  0  0  0  0  0  0  0
   32.1594   38.0226   66.1649 C   0  0  0  0  0  0  0  0  0  0  0  0
   32.5144   36.6557   65.5765 C   0  0  0  0  0  0  0  0  0  0  0  0
   32.2516   36.6655   64.0693 C   0  0  0  0  0  0  0  0  0  0  0  0
   28.8451   37.2782   60.9721 H   0  0  0  0  0  0  0  0  0  0  0  0
   28.4192   36.5028   62.5165 H   0  0  0  0  0  0  0  0  0  0  0  0
   28.7794   38.2451   62.4651 H   0  0  0  0  0  0  0  0  0  0  0  0
   31.5764   38.8045   62.1666 H   0  0  0  0  0  0  0  0  0  0  0  0
   32.7568   39.5959   60.3145 H   0  0  0  0  0  0  0  0  0  0  0  0
   33.0216   36.4939   58.6251 H   0  0  0  0  0  0  0  0  0  0  0  0
   34.1582   38.1788   54.8723 H   0  0  0  0  0  0  0  0  0  0  0  0
   32.9878   40.7349   58.0834 H   0  0  0  0  0  0  0  0  0  0  0  0
   30.1602   36.1950   64.2818 H   0  0  0  0  0  0  0  0  0  0  0  0
   31.0314   39.0989   63.9290 H   0  0  0  0  0  0  0  0  0  0  0  0
   29.3651   38.5427   64.2158 H   0  0  0  0  0  0  0  0  0  0  0  0
   30.0680   37.5521   66.3776 H   0  0  0  0  0  0  0  0  0  0  0  0
   30.4281   39.2944   66.3261 H   0  0  0  0  0  0  0  0  0  0  0  0
   32.3465   38.0156   67.2387 H   0  0  0  0  0  0  0  0  0  0  0  0
   32.7724   38.7912   65.6943 H   0  0  0  0  0  0  0  0  0  0  0  0
   31.9013   35.8871   66.0471 H   0  0  0  0  0  0  0  0  0  0  0  0
   33.5676   36.4434   65.7603 H   0  0  0  0  0  0  0  0  0  0  0  0
   32.5046   35.6917   63.6500 H   0  0  0  0  0  0  0  0  0  0  0  0
   32.8648   37.4341   63.5986 H   0  0  0  0  0  0  0  0  0  0  0  0
  1  2  1  0  0  0  0
  1 22  1  0  0  0  0
  1 23  1  0  0  0  0
  1 24  1  0  0  0  0
  2  3  1  6  0  0  0
  2  4  1  0  0  0  0
  2 16  1  0  0  0  0
  4  5  1  0  0  0  0
  4 25  1  0  0  0  0
  5  6  2  0  0  0  0
  5  7  1  0  0  0  0
  7  8  1  0  0  0  0
  7 26  1  0  0  0  0
  8 15  2  0  0  0  0
  8  9  1  0  0  0  0
  9 10  2  0  0  0  0
  9 27  1  0  0  0  0
 10 11  1  0  0  0  0
 10 12  1  0  0  0  0
 12 13  2  0  0  0  0
 12 28  1  0  0  0  0
 13 14  1  0  0  0  0
 13 15  1  0  0  0  0
 15 29  1  0  0  0  0
 16 21  1  0  0  0  0
 16 17  1  0  0  0  0
 16 30  1  0  0  0  0
 17 18  1  0  0  0  0
 17 31  1  0  0  0  0
 17 32  1  0  0  0  0
 18 19  1  0  0  0  0
 18 33  1  0  0  0  0
 18 34  1  0  0  0  0
 19 20  1  0  0  0  0
 19 35  1  0  0  0  0
 19 36  1  0  0  0  0
 20 21  1  0  0  0  0
 20 37  1  0  0  0  0
 20 38  1  0  0  0  0
 21 39  1  0  0  0  0
 21 40  1  0  0  0  0
M  END
$$$$
