ZINC000000001803      none
 OpenBabel11202420153D

 24 25  0  0  0  0  0  0  0  0999 V2000
   31.4397   37.8092   66.2058 O   0  0  0  0  0  0  0  0  0  0  0  0
   31.3364   37.8190   64.9955 C   0  0  0  0  0  0  0  0  0  0  0  0
   32.1510   37.1278   64.1875 N   0  0  0  0  0  0  0  0  0  0  0  0
   31.7587   37.3631   62.7899 C   0  0  0  0  0  0  0  0  0  0  0  0
   30.5580   38.3228   62.9002 C   0  0  0  0  0  0  0  0  0  0  0  0
   30.4013   38.5263   64.3480 N   0  0  0  0  0  0  0  0  0  0  0  0
   29.5057   39.2683   64.9059 N   0  0  0  0  0  0  0  0  0  0  0  0
   29.7656   39.8670   66.0751 C   0  0  0  0  0  0  0  0  0  0  0  0
   28.7741   40.5753   66.7232 C   0  0  0  0  0  0  0  0  0  0  0  0
   28.9006   41.2932   68.0072 C   0  0  0  0  0  0  0  0  0  0  0  0
   27.6760   41.8400   68.2515 C   0  0  0  0  0  0  0  0  0  0  0  0
   26.8343   41.4902   67.1926 C   0  0  0  0  0  0  0  0  0  0  0  0
   25.4079   41.8878   67.0723 N   0  0  0  0  0  0  0  0  0  0  0  0
   24.8487   42.6255   68.0092 O   0  0  0  0  0  0  0  0  0  0  0  0
   24.7024   41.5024   66.0291 O   0  0  0  0  0  0  0  0  0  0  0  0
   27.5001   40.7505   66.3014 O   0  0  0  0  0  0  0  0  0  0  0  0
   32.8833   36.5620   64.4780 H   0  0  0  0  0  0  0  0  0  0  0  0
   31.4595   36.4291   62.3141 H   0  0  0  0  0  0  0  0  0  0  0  0
   32.5723   37.8304   62.2353 H   0  0  0  0  0  0  0  0  0  0  0  0
   29.6626   37.8654   62.4790 H   0  0  0  0  0  0  0  0  0  0  0  0
   30.7739   39.2680   62.4020 H   0  0  0  0  0  0  0  0  0  0  0  0
   30.7513   39.7956   66.5108 H   0  0  0  0  0  0  0  0  0  0  0  0
   29.7824   41.3692   68.6262 H   0  0  0  0  0  0  0  0  0  0  0  0
   27.4049   42.4362   69.1101 H   0  0  0  0  0  0  0  0  0  0  0  0
  1  2  2  0  0  0  0
  2  6  1  0  0  0  0
  2  3  1  0  0  0  0
  3  4  1  0  0  0  0
  3 17  1  0  0  0  0
  4  5  1  0  0  0  0
  4 18  1  0  0  0  0
  4 19  1  0  0  0  0
  5  6  1  0  0  0  0
  5 20  1  0  0  0  0
  5 21  1  0  0  0  0
  6  7  1  0  0  0  0
  7  8  2  0  0  0  0
  8  9  1  0  0  0  0
  8 22  1  0  0  0  0
  9 16  1  0  0  0  0
  9 10  2  0  0  0  0
 10 11  1  0  0  0  0
 10 23  1  0  0  0  0
 11 12  2  0  0  0  0
 11 24  1  0  0  0  0
 12 13  1  0  0  0  0
 12 16  1  0  0  0  0
 13 14  2  0  0  0  0
 13 15  2  0  0  0  0
M  END
$$$$
