ZINC000000002007      none
 OpenBabel11202420153D

 24 26  0  0  0  0  0  0  0  0999 V2000
   34.0418   39.4085   55.9433 C   0  0  0  0  0  0  0  0  0  0  0  0
   34.0895   38.5408   54.8614 C   0  0  0  0  0  0  0  0  0  0  0  0
   33.6954   37.2264   54.9948 C   0  0  0  0  0  0  0  0  0  0  0  0
   33.2444   36.7611   56.2238 C   0  0  0  0  0  0  0  0  0  0  0  0
   32.8037   35.5613   56.6528 O   0  0  0  0  0  0  0  0  0  0  0  0
   32.4777   35.6086   57.9598 C   0  0  0  0  0  0  0  0  0  0  0  0
   31.9664   34.4691   58.7495 C   0  0  0  0  0  0  0  0  0  0  0  0
   32.2302   34.3677   60.1208 C   0  0  0  0  0  0  0  0  0  0  0  0
   31.7282   33.2902   60.8202 C   0  0  0  0  0  0  0  0  0  0  0  0
   31.0188   32.3585   60.2120 N   0  0  0  0  0  0  0  0  0  0  0  0
   30.7521   32.4122   58.9208 C   0  0  0  0  0  0  0  0  0  0  0  0
   31.2093   33.4573   58.1460 C   0  0  0  0  0  0  0  0  0  0  0  0
   32.6865   36.8575   58.4406 C   0  0  0  0  0  0  0  0  0  0  0  0
   33.1978   37.6450   57.3167 C   0  0  0  0  0  0  0  0  0  0  0  0
   33.6015   38.9722   57.1616 C   0  0  0  0  0  0  0  0  0  0  0  0
   34.3544   40.4351   55.8220 H   0  0  0  0  0  0  0  0  0  0  0  0
   34.4395   38.8990   53.9045 H   0  0  0  0  0  0  0  0  0  0  0  0
   33.7369   36.5601   54.1458 H   0  0  0  0  0  0  0  0  0  0  0  0
   32.8140   35.1240   60.6242 H   0  0  0  0  0  0  0  0  0  0  0  0
   31.9219   33.2058   61.8792 H   0  0  0  0  0  0  0  0  0  0  0  0
   30.1672   31.6272   58.4646 H   0  0  0  0  0  0  0  0  0  0  0  0
   30.9865   33.4952   57.0898 H   0  0  0  0  0  0  0  0  0  0  0  0
   32.5151   37.2018   59.4498 H   0  0  0  0  0  0  0  0  0  0  0  0
   33.5655   39.6515   58.0005 H   0  0  0  0  0  0  0  0  0  0  0  0
  1 15  2  0  0  0  0
  1  2  1  0  0  0  0
  1 16  1  0  0  0  0
  2  3  2  0  0  0  0
  2 17  1  0  0  0  0
  3  4  1  0  0  0  0
  3 18  1  0  0  0  0
  4 14  2  0  0  0  0
  4  5  1  0  0  0  0
  5  6  1  0  0  0  0
  6  7  1  0  0  0  0
  6 13  2  0  0  0  0
  7 12  2  0  0  0  0
  7  8  1  0  0  0  0
  8  9  2  0  0  0  0
  8 19  1  0  0  0  0
  9 10  1  0  0  0  0
  9 20  1  0  0  0  0
 10 11  2  0  0  0  0
 11 12  1  0  0  0  0
 11 21  1  0  0  0  0
 12 22  1  0  0  0  0
 13 14  1  0  0  0  0
 13 23  1  0  0  0  0
 14 15  1  0  0  0  0
 15 24  1  0  0  0  0
M  END
$$$$
