ZINC000000000044      none
 OpenBabel11202420153D

 24 26  0  0  1  0  0  0  0  0999 V2000
   29.6442   38.3512   63.7905 C   0  0  0  0  0  0  0  0  0  0  0  0
   29.3818   37.7692   62.6396 C   0  0  0  0  0  0  0  0  0  0  0  0
   30.4341   37.3982   61.8250 N   0  0  0  0  0  0  0  0  0  0  0  0
   30.6042   36.7433   60.5009 C   0  0  0  0  0  0  0  0  0  0  0  0
   32.1285   36.6970   60.3075 C   0  0  1  0  0  0  0  0  0  0  0  0
   32.4741   35.6666   60.2245 H   0  0  0  0  0  0  0  0  0  0  0  0
   32.5307   37.4874   59.0891 C   0  0  0  0  0  0  0  0  0  0  0  0
   32.6046   36.8669   57.8560 C   0  0  0  0  0  0  0  0  0  0  0  0
   32.9679   37.5933   56.7375 C   0  0  0  0  0  0  0  0  0  0  0  0
   33.2627   38.9389   56.8527 C   0  0  0  0  0  0  0  0  0  0  0  0
   33.1939   39.5582   58.0868 C   0  0  0  0  0  0  0  0  0  0  0  0
   32.8306   38.8318   59.2053 C   0  0  0  0  0  0  0  0  0  0  0  0
   32.6597   37.3208   61.5230 N   0  0  0  0  0  0  0  0  0  0  0  0
   31.6793   37.6804   62.3087 C   0  0  0  0  0  0  0  0  0  0  0  0
   31.4094   38.4581   63.8846 S   0  0  0  0  0  0  0  0  0  0  0  0
   28.9306   38.6934   64.5253 H   0  0  0  0  0  0  0  0  0  0  0  0
   28.3615   37.5850   62.3370 H   0  0  0  0  0  0  0  0  0  0  0  0
   30.1368   37.3387   59.7165 H   0  0  0  0  0  0  0  0  0  0  0  0
   30.1895   35.7354   60.5163 H   0  0  0  0  0  0  0  0  0  0  0  0
   32.3739   35.8157   57.7658 H   0  0  0  0  0  0  0  0  0  0  0  0
   33.0212   37.1095   55.7733 H   0  0  0  0  0  0  0  0  0  0  0  0
   33.5464   39.5065   55.9788 H   0  0  0  0  0  0  0  0  0  0  0  0
   33.4239   40.6096   58.1768 H   0  0  0  0  0  0  0  0  0  0  0  0
   32.7765   39.3158   60.1693 H   0  0  0  0  0  0  0  0  0  0  0  0
  1 15  1  0  0  0  0
  1  2  2  0  0  0  0
  1 16  1  0  0  0  0
  2  3  1  0  0  0  0
  2 17  1  0  0  0  0
  3 14  1  0  0  0  0
  3  4  1  0  0  0  0
  4  5  1  0  0  0  0
  4 18  1  0  0  0  0
  4 19  1  0  0  0  0
  5  6  1  6  0  0  0
  5  7  1  0  0  0  0
  5 13  1  0  0  0  0
  7 12  2  0  0  0  0
  7  8  1  0  0  0  0
  8  9  2  0  0  0  0
  8 20  1  0  0  0  0
  9 10  1  0  0  0  0
  9 21  1  0  0  0  0
 10 11  2  0  0  0  0
 10 22  1  0  0  0  0
 11 12  1  0  0  0  0
 11 23  1  0  0  0  0
 12 24  1  0  0  0  0
 13 14  2  0  0  0  0
 14 15  1  0  0  0  0
M  END
$$$$
