ZINC000000021853      none
 OpenBabel11202420153D

 26 28  0  0  0  0  0  0  0  0999 V2000
   32.4445   35.8382   52.1220 Cl  0  0  0  0  0  0  0  0  0  0  0  0
   33.0699   35.1821   53.6025 C   0  0  0  0  0  0  0  0  0  0  0  0
   33.9683   34.1296   53.5677 C   0  0  0  0  0  0  0  0  0  0  0  0
   34.4683   33.6046   54.7448 C   0  0  0  0  0  0  0  0  0  0  0  0
   34.0730   34.1289   55.9599 C   0  0  0  0  0  0  0  0  0  0  0  0
   33.1672   35.1813   55.9993 C   0  0  0  0  0  0  0  0  0  0  0  0
   32.7609   35.7098   57.2278 N   0  0  0  0  0  0  0  0  0  0  0  0
   32.9948   37.0427   57.5192 C   0  0  0  0  0  0  0  0  0  0  0  0
   33.6046   37.8354   56.6425 N   0  0  0  0  0  0  0  0  0  0  0  0
   33.8292   39.1077   56.9164 C   0  0  0  0  0  0  0  0  0  0  0  0
   33.4716   39.6643   58.0536 N   0  0  0  0  0  0  0  0  0  0  0  0
   32.8548   38.9522   58.9951 C   0  0  0  0  0  0  0  0  0  0  0  0
   32.3727   39.2338   60.2438 N   0  0  0  0  0  0  0  0  0  0  0  0
   32.4175   40.1016   60.6746 H   0  0  0  0  0  0  0  0  0  0  0  0
   31.8176   38.1091   60.7972 C   0  0  0  0  0  0  0  0  0  0  0  0
   31.9207   37.0809   59.9392 C   0  0  0  0  0  0  0  0  0  0  0  0
   32.5893   37.5929   58.7445 C   0  0  0  0  0  0  0  0  0  0  0  0
   32.6708   35.7113   54.8152 C   0  0  0  0  0  0  0  0  0  0  0  0
   34.2795   33.7180   52.6189 H   0  0  0  0  0  0  0  0  0  0  0  0
   35.1689   32.7832   54.7141 H   0  0  0  0  0  0  0  0  0  0  0  0
   34.4643   33.7181   56.8788 H   0  0  0  0  0  0  0  0  0  0  0  0
   32.3150   35.1426   57.8762 H   0  0  0  0  0  0  0  0  0  0  0  0
   34.3274   39.7163   56.1763 H   0  0  0  0  0  0  0  0  0  0  0  0
   31.3651   38.0574   61.7766 H   0  0  0  0  0  0  0  0  0  0  0  0
   31.5730   36.0711   60.0994 H   0  0  0  0  0  0  0  0  0  0  0  0
   31.9701   36.5329   54.8423 H   0  0  0  0  0  0  0  0  0  0  0  0
  1  2  1  0  0  0  0
  2 18  2  0  0  0  0
  2  3  1  0  0  0  0
  3  4  2  0  0  0  0
  3 19  1  0  0  0  0
  4  5  1  0  0  0  0
  4 20  1  0  0  0  0
  5  6  2  0  0  0  0
  5 21  1  0  0  0  0
  6  7  1  0  0  0  0
  6 18  1  0  0  0  0
  7  8  1  0  0  0  0
  7 22  1  0  0  0  0
  8 17  2  0  0  0  0
  8  9  1  0  0  0  0
  9 10  2  0  0  0  0
 10 11  1  0  0  0  0
 10 23  1  0  0  0  0
 11 12  2  0  0  0  0
 12 17  1  0  0  0  0
 12 13  1  0  0  0  0
 13 14  1  0  0  0  0
 13 15  1  0  0  0  0
 15 16  2  0  0  0  0
 15 24  1  0  0  0  0
 16 17  1  0  0  0  0
 16 25  1  0  0  0  0
 18 26  1  0  0  0  0
M  END
$$$$
