ZINC000000020124      none
 OpenBabel11202420153D

 42 43  0  0  0  0  0  0  0  0999 V2000
   31.3170   33.0937   60.1486 C   0  0  0  0  0  0  0  0  0  0  0  0
   32.4919   34.0508   60.3602 C   0  0  0  0  0  0  0  0  0  0  0  0
   33.0476   34.4366   59.0607 N   0  0  0  0  0  0  0  0  0  0  0  0
   32.4445   35.3927   58.3269 C   0  0  0  0  0  0  0  0  0  0  0  0
   31.4389   35.9354   58.7435 O   0  0  0  0  0  0  0  0  0  0  0  0
   33.0034   35.7807   57.0202 C   0  0  0  0  0  0  0  0  0  0  0  0
   33.1243   34.8206   55.9977 C   0  0  0  0  0  0  0  0  0  0  0  0
   33.6350   35.1531   54.7866 C   0  0  0  0  0  0  0  0  0  0  0  0
   34.0550   36.4737   54.5323 C   0  0  0  0  0  0  0  0  0  0  0  0
   34.5870   36.8340   53.2830 C   0  0  0  0  0  0  0  0  0  0  0  0
   34.9861   38.1164   53.0622 C   0  0  0  0  0  0  0  0  0  0  0  0
   34.8747   39.0853   54.0629 C   0  0  0  0  0  0  0  0  0  0  0  0
   35.2815   40.3580   53.8134 O   0  0  0  0  0  0  0  0  0  0  0  0
   35.8089   40.6273   52.5128 C   0  0  0  0  0  0  0  0  0  0  0  0
   34.3621   38.7686   55.2894 C   0  0  0  0  0  0  0  0  0  0  0  0
   33.9417   37.4545   55.5479 C   0  0  0  0  0  0  0  0  0  0  0  0
   33.4087   37.0951   56.8032 C   0  0  0  0  0  0  0  0  0  0  0  0
   33.2926   38.0187   57.7875 O   0  0  0  0  0  0  0  0  0  0  0  0
   32.4715   39.1563   57.5162 C   0  0  0  0  0  0  0  0  0  0  0  0
   31.0325   38.8602   57.9431 C   0  0  0  0  0  0  0  0  0  0  0  0
   32.9971   40.3625   58.2969 C   0  0  0  0  0  0  0  0  0  0  0  0
   30.9035   32.8066   61.1153 H   0  0  0  0  0  0  0  0  0  0  0  0
   30.5473   33.5886   59.5565 H   0  0  0  0  0  0  0  0  0  0  0  0
   31.6636   32.2039   59.6230 H   0  0  0  0  0  0  0  0  0  0  0  0
   33.2617   33.5559   60.9522 H   0  0  0  0  0  0  0  0  0  0  0  0
   32.1453   34.9406   60.8858 H   0  0  0  0  0  0  0  0  0  0  0  0
   33.8497   34.0039   58.7284 H   0  0  0  0  0  0  0  0  0  0  0  0
   32.8062   33.8049   56.1806 H   0  0  0  0  0  0  0  0  0  0  0  0
   33.7202   34.4031   54.0142 H   0  0  0  0  0  0  0  0  0  0  0  0
   34.6788   36.0958   52.5001 H   0  0  0  0  0  0  0  0  0  0  0  0
   35.3904   38.3897   52.0988 H   0  0  0  0  0  0  0  0  0  0  0  0
   36.0949   41.6771   52.4470 H   0  0  0  0  0  0  0  0  0  0  0  0
   36.6836   40.0007   52.3385 H   0  0  0  0  0  0  0  0  0  0  0  0
   35.0503   40.4096   51.7611 H   0  0  0  0  0  0  0  0  0  0  0  0
   34.2805   39.5253   56.0555 H   0  0  0  0  0  0  0  0  0  0  0  0
   32.4959   39.3758   56.4487 H   0  0  0  0  0  0  0  0  0  0  0  0
   30.4277   39.7601   57.8314 H   0  0  0  0  0  0  0  0  0  0  0  0
   30.6234   38.0674   57.3167 H   0  0  0  0  0  0  0  0  0  0  0  0
   31.0210   38.5419   58.9856 H   0  0  0  0  0  0  0  0  0  0  0  0
   34.0224   40.5735   57.9928 H   0  0  0  0  0  0  0  0  0  0  0  0
   32.3709   41.2303   58.0899 H   0  0  0  0  0  0  0  0  0  0  0  0
   32.9727   40.1431   59.3643 H   0  0  0  0  0  0  0  0  0  0  0  0
  1  2  1  0  0  0  0
  1 22  1  0  0  0  0
  1 23  1  0  0  0  0
  1 24  1  0  0  0  0
  2  3  1  0  0  0  0
  2 25  1  0  0  0  0
  2 26  1  0  0  0  0
  3  4  1  0  0  0  0
  3 27  1  0  0  0  0
  4  5  2  0  0  0  0
  4  6  1  0  0  0  0
  6 17  2  0  0  0  0
  6  7  1  0  0  0  0
  7  8  2  0  0  0  0
  7 28  1  0  0  0  0
  8  9  1  0  0  0  0
  8 29  1  0  0  0  0
  9 16  2  0  0  0  0
  9 10  1  0  0  0  0
 10 11  2  0  0  0  0
 10 30  1  0  0  0  0
 11 12  1  0  0  0  0
 11 31  1  0  0  0  0
 12 13  1  0  0  0  0
 12 15  2  0  0  0  0
 13 14  1  0  0  0  0
 14 32  1  0  0  0  0
 14 33  1  0  0  0  0
 14 34  1  0  0  0  0
 15 16  1  0  0  0  0
 15 35  1  0  0  0  0
 16 17  1  0  0  0  0
 17 18  1  0  0  0  0
 18 19  1  0  0  0  0
 19 20  1  0  0  0  0
 19 21  1  0  0  0  0
 19 36  1  0  0  0  0
 20 37  1  0  0  0  0
 20 38  1  0  0  0  0
 20 39  1  0  0  0  0
 21 40  1  0  0  0  0
 21 41  1  0  0  0  0
 21 42  1  0  0  0  0
M  END
$$$$
