ZINC000000030299      none
 OpenBabel11202420163D

 28 29  0  0  0  0  0  0  0  0999 V2000
   32.1741   37.5050   63.4724 N   0  0  0  0  0  0  0  0  0  0  0  0
   30.9890   37.7469   62.3413 S   0  0  0  0  0  0  0  0  0  0  0  0
   30.6831   39.1343   62.3711 O   0  0  0  0  0  0  0  0  0  0  0  0
   30.0174   36.7322   62.5547 O   0  0  0  0  0  0  0  0  0  0  0  0
   31.7025   37.4285   60.7620 C   0  0  0  0  0  0  0  0  0  0  0  0
   32.3015   38.4556   60.0558 C   0  0  0  0  0  0  0  0  0  0  0  0
   32.8620   38.2093   58.8180 C   0  0  0  0  0  0  0  0  0  0  0  0
   32.8233   36.9285   58.2822 C   0  0  0  0  0  0  0  0  0  0  0  0
   33.3900   36.6757   57.0291 N   0  0  0  0  0  0  0  0  0  0  0  0
   32.9351   37.3263   55.9401 C   0  0  0  0  0  0  0  0  0  0  0  0
   32.0309   38.1341   56.0474 O   0  0  0  0  0  0  0  0  0  0  0  0
   33.5292   37.0613   54.6262 C   0  0  0  0  0  0  0  0  0  0  0  0
   32.8690   36.5915   53.5269 C   0  0  0  0  0  0  0  0  0  0  0  0
   33.8180   36.4939   52.4974 C   0  0  0  0  0  0  0  0  0  0  0  0
   35.0010   36.9033   53.0066 C   0  0  0  0  0  0  0  0  0  0  0  0
   34.8229   37.2444   54.2896 O   0  0  0  0  0  0  0  0  0  0  0  0
   32.2155   35.9004   58.9914 C   0  0  0  0  0  0  0  0  0  0  0  0
   31.6627   36.1520   60.2317 C   0  0  0  0  0  0  0  0  0  0  0  0
   32.1633   38.0084   64.3016 H   0  0  0  0  0  0  0  0  0  0  0  0
   32.8791   36.8599   63.3059 H   0  0  0  0  0  0  0  0  0  0  0  0
   32.3312   39.4513   60.4730 H   0  0  0  0  0  0  0  0  0  0  0  0
   33.3296   39.0119   58.2669 H   0  0  0  0  0  0  0  0  0  0  0  0
   34.1106   36.0319   56.9436 H   0  0  0  0  0  0  0  0  0  0  0  0
   31.8201   36.3427   53.4623 H   0  0  0  0  0  0  0  0  0  0  0  0
   33.6370   36.1551   51.4880 H   0  0  0  0  0  0  0  0  0  0  0  0
   35.9359   36.9478   52.4680 H   0  0  0  0  0  0  0  0  0  0  0  0
   32.1799   34.9043   58.5757 H   0  0  0  0  0  0  0  0  0  0  0  0
   31.1942   35.3521   60.7858 H   0  0  0  0  0  0  0  0  0  0  0  0
  1  2  1  0  0  0  0
  1 19  1  0  0  0  0
  1 20  1  0  0  0  0
  2  3  2  0  0  0  0
  2  4  2  0  0  0  0
  2  5  1  0  0  0  0
  5 18  2  0  0  0  0
  5  6  1  0  0  0  0
  6  7  2  0  0  0  0
  6 21  1  0  0  0  0
  7  8  1  0  0  0  0
  7 22  1  0  0  0  0
  8  9  1  0  0  0  0
  8 17  2  0  0  0  0
  9 10  1  0  0  0  0
  9 23  1  0  0  0  0
 10 11  2  0  0  0  0
 10 12  1  0  0  0  0
 12 16  1  0  0  0  0
 12 13  2  0  0  0  0
 13 14  1  0  0  0  0
 13 24  1  0  0  0  0
 14 15  2  0  0  0  0
 14 25  1  0  0  0  0
 15 16  1  0  0  0  0
 15 26  1  0  0  0  0
 17 18  1  0  0  0  0
 17 27  1  0  0  0  0
 18 28  1  0  0  0  0
M  END
$$$$
