ZINC000000031287      none
 OpenBabel11202420163D

 36 39  0  0  0  0  0  0  0  0999 V2000
   32.9529   39.1074   66.7265 C   0  0  0  0  0  0  0  0  0  0  0  0
   32.7067   38.3497   65.4473 C   0  0  0  0  0  0  0  0  0  0  0  0
   33.3244   37.1291   65.2399 C   0  0  0  0  0  0  0  0  0  0  0  0
   33.1028   36.4302   64.0713 C   0  0  0  0  0  0  0  0  0  0  0  0
   32.2537   36.9572   63.0969 C   0  0  0  0  0  0  0  0  0  0  0  0
   32.0121   36.2139   61.8420 C   0  0  0  0  0  0  0  0  0  0  0  0
   32.3219   36.7523   60.6960 N   0  0  0  0  0  0  0  0  0  0  0  0
   32.0902   36.1090   59.4773 N   0  0  0  0  0  0  0  0  0  0  0  0
   31.7394   34.8004   59.4417 C   0  0  0  0  0  0  0  0  0  0  0  0
   31.5262   33.9741   57.9577 S   0  0  0  0  0  0  0  0  0  0  0  0
   31.5509   34.1236   60.7252 C   0  0  0  0  0  0  0  0  0  0  0  0
   31.4098   32.7922   60.8334 C   0  0  0  0  0  0  0  0  0  0  0  0
   31.3334   32.2457   62.1174 N   0  0  0  0  0  0  0  0  0  0  0  0
   30.7367   33.0266   63.1257 C   0  0  0  0  0  0  0  0  0  0  0  0
   30.0932   32.4573   64.2040 C   0  0  0  0  0  0  0  0  0  0  0  0
   29.5315   33.2705   65.1769 C   0  0  0  0  0  0  0  0  0  0  0  0
   29.6153   34.6452   65.0702 C   0  0  0  0  0  0  0  0  0  0  0  0
   30.2582   35.2247   63.9870 C   0  0  0  0  0  0  0  0  0  0  0  0
   30.8151   34.4224   63.0128 C   0  0  0  0  0  0  0  0  0  0  0  0
   31.4564   34.9437   61.8847 N   0  0  0  0  0  0  0  0  0  0  0  0
   31.6383   38.1917   63.3100 C   0  0  0  0  0  0  0  0  0  0  0  0
   31.8635   38.8775   64.4856 C   0  0  0  0  0  0  0  0  0  0  0  0
   33.8103   39.7681   66.5981 H   0  0  0  0  0  0  0  0  0  0  0  0
   32.0717   39.6994   66.9735 H   0  0  0  0  0  0  0  0  0  0  0  0
   33.1549   38.4026   67.5331 H   0  0  0  0  0  0  0  0  0  0  0  0
   33.9812   36.7225   65.9948 H   0  0  0  0  0  0  0  0  0  0  0  0
   33.5857   35.4776   63.9106 H   0  0  0  0  0  0  0  0  0  0  0  0
   32.1811   36.6042   58.6482 H   0  0  0  0  0  0  0  0  0  0  0  0
   31.3567   32.1642   59.9564 H   0  0  0  0  0  0  0  0  0  0  0  0
   31.6791   31.3594   62.3072 H   0  0  0  0  0  0  0  0  0  0  0  0
   30.0271   31.3828   64.2908 H   0  0  0  0  0  0  0  0  0  0  0  0
   29.0257   32.8268   66.0218 H   0  0  0  0  0  0  0  0  0  0  0  0
   29.1782   35.2712   65.8338 H   0  0  0  0  0  0  0  0  0  0  0  0
   30.3266   36.2996   63.9085 H   0  0  0  0  0  0  0  0  0  0  0  0
   30.9837   38.6070   62.5580 H   0  0  0  0  0  0  0  0  0  0  0  0
   31.3841   39.8305   64.6538 H   0  0  0  0  0  0  0  0  0  0  0  0
  1  2  1  0  0  0  0
  1 23  1  0  0  0  0
  1 24  1  0  0  0  0
  1 25  1  0  0  0  0
  2 22  2  0  0  0  0
  2  3  1  0  0  0  0
  3  4  2  0  0  0  0
  3 26  1  0  0  0  0
  4  5  1  0  0  0  0
  4 27  1  0  0  0  0
  5  6  1  0  0  0  0
  5 21  2  0  0  0  0
  6 20  1  0  0  0  0
  6  7  2  0  0  0  0
  7  8  1  0  0  0  0
  8  9  1  0  0  0  0
  8 28  1  0  0  0  0
  9 10  2  0  0  0  0
  9 11  1  0  0  0  0
 11 20  1  0  0  0  0
 11 12  2  0  0  0  0
 12 13  1  0  0  0  0
 12 29  1  0  0  0  0
 13 14  1  0  0  0  0
 13 30  1  0  0  0  0
 14 19  2  0  0  0  0
 14 15  1  0  0  0  0
 15 16  2  0  0  0  0
 15 31  1  0  0  0  0
 16 17  1  0  0  0  0
 16 32  1  0  0  0  0
 17 18  2  0  0  0  0
 17 33  1  0  0  0  0
 18 19  1  0  0  0  0
 18 34  1  0  0  0  0
 19 20  1  0  0  0  0
 21 22  1  0  0  0  0
 21 35  1  0  0  0  0
 22 36  1  0  0  0  0
M  END
$$$$
