ZINC000000003544      none
 OpenBabel11202420153D

 28 28  0  0  0  0  0  0  0  0999 V2000
   30.9257   35.9872   66.7492 C   0  0  0  0  0  0  0  0  0  0  0  0
   29.7448   35.9342   65.7780 C   0  0  0  0  0  0  0  0  0  0  0  0
   30.1054   36.6167   64.5329 N   0  0  0  0  0  0  0  0  0  0  0  0
   29.8539   38.0524   64.3852 C   0  0  0  0  0  0  0  0  0  0  0  0
   31.0727   38.8366   64.8755 C   0  0  0  0  0  0  0  0  0  0  0  0
   30.6739   35.9249   63.5255 C   0  0  0  0  0  0  0  0  0  0  0  0
   30.8874   34.7342   63.6501 O   0  0  0  0  0  0  0  0  0  0  0  0
   31.0372   36.6118   62.2724 C   0  0  0  0  0  0  0  0  0  0  0  0
   30.1031   36.7030   61.2121 C   0  0  0  0  0  0  0  0  0  0  0  0
   30.4649   37.3421   60.0677 C   0  0  0  0  0  0  0  0  0  0  0  0
   31.7542   37.8969   59.9616 C   0  0  0  0  0  0  0  0  0  0  0  0
   32.0833   38.4716   58.9374 O   0  0  0  0  0  0  0  0  0  0  0  0
   32.6260   37.7987   60.9816 N   0  0  0  0  0  0  0  0  0  0  0  0
   33.5105   38.1868   60.8925 H   0  0  0  0  0  0  0  0  0  0  0  0
   32.2881   37.1758   62.1258 C   0  0  0  0  0  0  0  0  0  0  0  0
   31.7876   35.4931   66.3006 H   0  0  0  0  0  0  0  0  0  0  0  0
   31.1736   37.0267   66.9635 H   0  0  0  0  0  0  0  0  0  0  0  0
   30.6574   35.4793   67.6756 H   0  0  0  0  0  0  0  0  0  0  0  0
   28.8829   36.4281   66.2266 H   0  0  0  0  0  0  0  0  0  0  0  0
   29.4969   34.8945   65.5637 H   0  0  0  0  0  0  0  0  0  0  0  0
   29.6716   38.2832   63.3356 H   0  0  0  0  0  0  0  0  0  0  0  0
   28.9810   38.3310   64.9755 H   0  0  0  0  0  0  0  0  0  0  0  0
   31.9456   38.5580   64.2852 H   0  0  0  0  0  0  0  0  0  0  0  0
   30.8856   39.9048   64.7657 H   0  0  0  0  0  0  0  0  0  0  0  0
   31.2551   38.6058   65.9252 H   0  0  0  0  0  0  0  0  0  0  0  0
   29.1182   36.2711   61.3107 H   0  0  0  0  0  0  0  0  0  0  0  0
   29.7682   37.4237   59.2465 H   0  0  0  0  0  0  0  0  0  0  0  0
   33.0026   37.1128   62.9333 H   0  0  0  0  0  0  0  0  0  0  0  0
  1  2  1  0  0  0  0
  1 16  1  0  0  0  0
  1 17  1  0  0  0  0
  1 18  1  0  0  0  0
  2  3  1  0  0  0  0
  2 19  1  0  0  0  0
  2 20  1  0  0  0  0
  3  4  1  0  0  0  0
  3  6  1  0  0  0  0
  4  5  1  0  0  0  0
  4 21  1  0  0  0  0
  4 22  1  0  0  0  0
  5 23  1  0  0  0  0
  5 24  1  0  0  0  0
  5 25  1  0  0  0  0
  6  7  2  0  0  0  0
  6  8  1  0  0  0  0
  8 15  2  0  0  0  0
  8  9  1  0  0  0  0
  9 10  2  0  0  0  0
  9 26  1  0  0  0  0
 10 11  1  0  0  0  0
 10 27  1  0  0  0  0
 11 12  2  0  0  0  0
 11 13  1  0  0  0  0
 13 14  1  0  0  0  0
 13 15  1  0  0  0  0
 15 28  1  0  0  0  0
M  END
$$$$
