ZINC000000054137      none
 OpenBabel11202420153D

 27 27  0  0  0  0  0  0  0  0999 V2000
   29.6154   37.9453   62.7781 C   0  0  0  0  0  0  0  0  0  0  0  0
   30.2395   36.5503   62.7045 C   0  0  0  0  0  0  0  0  0  0  0  0
   30.6558   36.2603   61.2856 C   0  0  0  0  0  0  0  0  0  0  0  0
   29.8770   35.7305   60.5213 O   0  0  0  0  0  0  0  0  0  0  0  0
   31.8934   36.5897   60.8657 N   0  0  0  0  0  0  0  0  0  0  0  0
   32.2802   36.3202   59.5475 C   0  0  0  0  0  0  0  0  0  0  0  0
   32.2880   35.0152   59.0675 C   0  0  0  0  0  0  0  0  0  0  0  0
   31.8139   33.7125   60.1121 Cl  0  0  0  0  0  0  0  0  0  0  0  0
   32.6517   34.7575   57.8265 N   0  0  0  0  0  0  0  0  0  0  0  0
   33.0193   35.7149   56.9968 C   0  0  0  0  0  0  0  0  0  0  0  0
   33.4253   35.3629   55.5889 C   0  0  0  0  0  0  0  0  0  0  0  0
   33.0369   37.0374   57.4011 C   0  0  0  0  0  0  0  0  0  0  0  0
   33.5225   38.2865   56.2976 Cl  0  0  0  0  0  0  0  0  0  0  0  0
   32.6675   37.3536   58.7002 C   0  0  0  0  0  0  0  0  0  0  0  0
   32.6800   38.7821   59.1803 C   0  0  0  0  0  0  0  0  0  0  0  0
   28.7419   37.9873   62.1274 H   0  0  0  0  0  0  0  0  0  0  0  0
   29.3143   38.1550   63.8045 H   0  0  0  0  0  0  0  0  0  0  0  0
   30.3454   38.6874   62.4547 H   0  0  0  0  0  0  0  0  0  0  0  0
   29.5095   35.8082   63.0280 H   0  0  0  0  0  0  0  0  0  0  0  0
   31.1130   36.5083   63.3553 H   0  0  0  0  0  0  0  0  0  0  0  0
   32.5162   37.0134   61.4769 H   0  0  0  0  0  0  0  0  0  0  0  0
   34.4978   35.1710   55.5572 H   0  0  0  0  0  0  0  0  0  0  0  0
   32.8870   34.4712   55.2677 H   0  0  0  0  0  0  0  0  0  0  0  0
   33.1847   36.1920   54.9233 H   0  0  0  0  0  0  0  0  0  0  0  0
   31.7078   39.2373   58.9917 H   0  0  0  0  0  0  0  0  0  0  0  0
   32.8904   38.8042   60.2496 H   0  0  0  0  0  0  0  0  0  0  0  0
   33.4510   39.3380   58.6468 H   0  0  0  0  0  0  0  0  0  0  0  0
  1  2  1  0  0  0  0
  1 16  1  0  0  0  0
  1 17  1  0  0  0  0
  1 18  1  0  0  0  0
  2  3  1  0  0  0  0
  2 19  1  0  0  0  0
  2 20  1  0  0  0  0
  3  4  2  0  0  0  0
  3  5  1  0  0  0  0
  5  6  1  0  0  0  0
  5 21  1  0  0  0  0
  6 14  2  0  0  0  0
  6  7  1  0  0  0  0
  7  8  1  0  0  0  0
  7  9  2  0  0  0  0
  9 10  1  0  0  0  0
 10 11  1  0  0  0  0
 10 12  2  0  0  0  0
 11 22  1  0  0  0  0
 11 23  1  0  0  0  0
 11 24  1  0  0  0  0
 12 13  1  0  0  0  0
 12 14  1  0  0  0  0
 14 15  1  0  0  0  0
 15 25  1  0  0  0  0
 15 26  1  0  0  0  0
 15 27  1  0  0  0  0
M  END
$$$$
