ZINC000000041110      none
 OpenBabel11202420153D

 28 30  0  0  0  0  0  0  0  0999 V2000
   33.1713   36.0230   63.0645 O   0  0  0  0  0  0  0  0  0  0  0  0
   32.3171   36.8848   63.1181 C   0  0  0  0  0  0  0  0  0  0  0  0
   31.6711   37.3839   64.3502 C   0  0  0  0  0  0  0  0  0  0  0  0
   31.8046   37.0937   65.6986 C   0  0  0  0  0  0  0  0  0  0  0  0
   31.0286   37.7698   66.6271 C   0  0  0  0  0  0  0  0  0  0  0  0
   30.1274   38.7346   66.2176 C   0  0  0  0  0  0  0  0  0  0  0  0
   29.9871   39.0396   64.8725 C   0  0  0  0  0  0  0  0  0  0  0  0
   30.7561   38.3719   63.9330 C   0  0  0  0  0  0  0  0  0  0  0  0
   30.8709   38.4332   62.4606 C   0  0  0  0  0  0  0  0  0  0  0  0
   30.2352   39.1662   61.7300 O   0  0  0  0  0  0  0  0  0  0  0  0
   31.7965   37.5407   62.0653 N   0  0  0  0  0  0  0  0  0  0  0  0
   32.1697   37.3231   60.7314 C   0  0  0  0  0  0  0  0  0  0  0  0
   32.7070   38.3603   59.9813 C   0  0  0  0  0  0  0  0  0  0  0  0
   33.0741   38.1430   58.6677 C   0  0  0  0  0  0  0  0  0  0  0  0
   33.6475   39.2486   57.8680 N   0  0  0  0  0  0  0  0  0  0  0  0
   33.7953   40.3493   58.3683 O   0  0  0  0  0  0  0  0  0  0  0  0
   33.9715   39.0579   56.7094 O   0  0  0  0  0  0  0  0  0  0  0  0
   32.9072   36.8936   58.0988 C   0  0  0  0  0  0  0  0  0  0  0  0
   32.3728   35.8579   58.8426 C   0  0  0  0  0  0  0  0  0  0  0  0
   32.0078   36.0676   60.1593 C   0  0  0  0  0  0  0  0  0  0  0  0
   31.3431   34.7652   61.0951 Cl  0  0  0  0  0  0  0  0  0  0  0  0
   32.5071   36.3408   66.0243 H   0  0  0  0  0  0  0  0  0  0  0  0
   31.1291   37.5414   67.6778 H   0  0  0  0  0  0  0  0  0  0  0  0
   29.5286   39.2549   66.9505 H   0  0  0  0  0  0  0  0  0  0  0  0
   29.2817   39.7947   64.5583 H   0  0  0  0  0  0  0  0  0  0  0  0
   32.8375   39.3365   60.4246 H   0  0  0  0  0  0  0  0  0  0  0  0
   33.1951   36.7266   57.0714 H   0  0  0  0  0  0  0  0  0  0  0  0
   32.2443   34.8831   58.3957 H   0  0  0  0  0  0  0  0  0  0  0  0
  1  2  2  0  0  0  0
  2 11  1  0  0  0  0
  2  3  1  0  0  0  0
  3  8  2  0  0  0  0
  3  4  1  0  0  0  0
  4  5  2  0  0  0  0
  4 22  1  0  0  0  0
  5  6  1  0  0  0  0
  5 23  1  0  0  0  0
  6  7  2  0  0  0  0
  6 24  1  0  0  0  0
  7  8  1  0  0  0  0
  7 25  1  0  0  0  0
  8  9  1  0  0  0  0
  9 10  2  0  0  0  0
  9 11  1  0  0  0  0
 11 12  1  0  0  0  0
 12 20  2  0  0  0  0
 12 13  1  0  0  0  0
 13 14  2  0  0  0  0
 13 26  1  0  0  0  0
 14 15  1  0  0  0  0
 14 18  1  0  0  0  0
 15 16  2  0  0  0  0
 15 17  2  0  0  0  0
 18 19  2  0  0  0  0
 18 27  1  0  0  0  0
 19 20  1  0  0  0  0
 19 28  1  0  0  0  0
 20 21  1  0  0  0  0
M  END
$$$$
