ZINC000000033225      none
 OpenBabel11202420153D

 39 40  0  0  1  0  0  0  0  0999 V2000
   29.4130   37.7464   62.9824 C   0  0  0  0  0  0  0  0  0  0  0  0
   30.4472   36.8970   62.2409 C   0  0  0  0  0  0  0  0  0  0  0  0
   31.3874   37.8111   61.4526 C   0  0  0  0  0  0  0  0  0  0  0  0
   29.7316   35.9484   61.2771 C   0  0  0  0  0  0  0  0  0  0  0  0
   31.2569   36.0820   63.2515 C   0  0  1  0  0  0  0  0  0  0  0  0
   31.7375   34.8786   62.6492 O   0  0  0  0  0  0  0  0  0  0  0  0
   32.4097   36.8996   63.7899 C   0  0  0  0  0  0  0  0  0  0  0  0
   32.2391   37.0172   65.0896 C   0  0  0  0  0  0  0  0  0  0  0  0
   33.1788   37.7653   65.9997 C   0  0  0  0  0  0  0  0  0  0  0  0
   32.7036   37.7027   67.3140 F   0  0  0  0  0  0  0  0  0  0  0  0
   34.4504   37.1856   65.9356 F   0  0  0  0  0  0  0  0  0  0  0  0
   33.2548   39.1022   65.5945 F   0  0  0  0  0  0  0  0  0  0  0  0
   31.0919   36.3780   65.5185 N   0  0  0  0  0  0  0  0  0  0  0  0
   30.4382   35.7726   64.4359 N   0  0  0  0  0  0  0  0  0  0  0  0
   29.2948   35.0601   64.4711 C   0  0  0  0  0  0  0  0  0  0  0  0
   28.8367   34.5948   63.4456 O   0  0  0  0  0  0  0  0  0  0  0  0
   28.5980   34.8448   65.7554 C   0  0  0  0  0  0  0  0  0  0  0  0
   28.1433   35.9363   66.4986 C   0  0  0  0  0  0  0  0  0  0  0  0
   27.4933   35.7284   67.6965 C   0  0  0  0  0  0  0  0  0  0  0  0
   27.2902   34.4409   68.1650 C   0  0  0  0  0  0  0  0  0  0  0  0
   27.7312   33.3547   67.4341 C   0  0  0  0  0  0  0  0  0  0  0  0
   28.3902   33.5474   66.2333 C   0  0  0  0  0  0  0  0  0  0  0  0
   28.8265   32.4851   65.5216 F   0  0  0  0  0  0  0  0  0  0  0  0
   29.9229   38.4222   63.6689 H   0  0  0  0  0  0  0  0  0  0  0  0
   28.8362   38.3270   62.2625 H   0  0  0  0  0  0  0  0  0  0  0  0
   28.7433   37.0951   63.5440 H   0  0  0  0  0  0  0  0  0  0  0  0
   32.1241   37.2060   60.9244 H   0  0  0  0  0  0  0  0  0  0  0  0
   30.8105   38.3916   60.7327 H   0  0  0  0  0  0  0  0  0  0  0  0
   31.8972   38.4870   62.1392 H   0  0  0  0  0  0  0  0  0  0  0  0
   28.8054   35.5982   61.7327 H   0  0  0  0  0  0  0  0  0  0  0  0
   29.5041   36.4753   60.3506 H   0  0  0  0  0  0  0  0  0  0  0  0
   30.3754   35.0958   61.0615 H   0  0  0  0  0  0  0  0  0  0  0  0
   32.2919   35.0228   61.8702 H   0  0  0  0  0  0  0  0  0  0  0  0
   33.2243   37.3122   63.2131 H   0  0  0  0  0  0  0  0  0  0  0  0
   30.7838   36.3499   66.4378 H   0  0  0  0  0  0  0  0  0  0  0  0
   28.3007   36.9411   66.1359 H   0  0  0  0  0  0  0  0  0  0  0  0
   27.1415   36.5724   68.2715 H   0  0  0  0  0  0  0  0  0  0  0  0
   26.7809   34.2860   69.1047 H   0  0  0  0  0  0  0  0  0  0  0  0
   27.5654   32.3534   67.8033 H   0  0  0  0  0  0  0  0  0  0  0  0
  1  2  1  0  0  0  0
  1 24  1  0  0  0  0
  1 25  1  0  0  0  0
  1 26  1  0  0  0  0
  2  3  1  0  0  0  0
  2  4  1  0  0  0  0
  2  5  1  0  0  0  0
  3 27  1  0  0  0  0
  3 28  1  0  0  0  0
  3 29  1  0  0  0  0
  4 30  1  0  0  0  0
  4 31  1  0  0  0  0
  4 32  1  0  0  0  0
  5 14  1  0  0  0  0
  5  6  1  6  0  0  0
  5  7  1  0  0  0  0
  6 33  1  0  0  0  0
  7  8  2  0  0  0  0
  7 34  1  0  0  0  0
  8  9  1  0  0  0  0
  8 13  1  0  0  0  0
  9 10  1  0  0  0  0
  9 11  1  0  0  0  0
  9 12  1  0  0  0  0
 13 14  1  0  0  0  0
 13 35  1  0  0  0  0
 14 15  1  0  0  0  0
 15 16  2  0  0  0  0
 15 17  1  0  0  0  0
 17 22  2  0  0  0  0
 17 18  1  0  0  0  0
 18 19  2  0  0  0  0
 18 36  1  0  0  0  0
 19 20  1  0  0  0  0
 19 37  1  0  0  0  0
 20 21  2  0  0  0  0
 20 38  1  0  0  0  0
 21 22  1  0  0  0  0
 21 39  1  0  0  0  0
 22 23  1  0  0  0  0
M  END
$$$$
