ZINC000000057061      none
 OpenBabel11202420153D

 27 28  0  0  0  0  0  0  0  0999 V2000
   34.2758   32.8029   54.4130 C   0  0  0  0  0  0  0  0  0  0  0  0
   34.2909   33.3996   55.8218 C   0  0  0  0  0  0  0  0  0  0  0  0
   34.5539   34.8253   55.7408 O   0  0  0  0  0  0  0  0  0  0  0  0
   33.6794   35.5677   55.0439 C   0  0  0  0  0  0  0  0  0  0  0  0
   32.5194   35.2353   54.9818 O   0  0  0  0  0  0  0  0  0  0  0  0
   34.1442   36.8160   54.3390 C   0  0  0  0  0  0  0  0  0  0  0  0
   34.0215   37.9620   55.2434 N   0  0  0  0  0  0  0  0  0  0  0  0
   34.3472   39.2542   54.9568 C   0  0  0  0  0  0  0  0  0  0  0  0
   34.1123   40.0112   55.9889 N   0  0  0  0  0  0  0  0  0  0  0  0
   33.6231   39.2550   57.0008 C   0  0  0  0  0  0  0  0  0  0  0  0
   33.2022   39.5165   58.3160 C   0  0  0  0  0  0  0  0  0  0  0  0
   33.2367   40.8016   58.8281 N   0  0  0  0  0  0  0  0  0  0  0  0
   32.7652   38.5019   59.0545 N   0  0  0  0  0  0  0  0  0  0  0  0
   32.7238   37.2730   58.5724 C   0  0  0  0  0  0  0  0  0  0  0  0
   33.1070   36.9815   57.3474 N   0  0  0  0  0  0  0  0  0  0  0  0
   33.5590   37.9312   56.5348 C   0  0  0  0  0  0  0  0  0  0  0  0
   34.0784   31.7327   54.4740 H   0  0  0  0  0  0  0  0  0  0  0  0
   33.4954   33.2835   53.8232 H   0  0  0  0  0  0  0  0  0  0  0  0
   35.2432   32.9675   53.9385 H   0  0  0  0  0  0  0  0  0  0  0  0
   35.0713   32.9191   56.4117 H   0  0  0  0  0  0  0  0  0  0  0  0
   33.3235   33.2352   56.2964 H   0  0  0  0  0  0  0  0  0  0  0  0
   33.5299   36.9839   53.4544 H   0  0  0  0  0  0  0  0  0  0  0  0
   35.1860   36.6983   54.0409 H   0  0  0  0  0  0  0  0  0  0  0  0
   34.7408   39.5991   54.0120 H   0  0  0  0  0  0  0  0  0  0  0  0
   32.9398   40.9701   59.7360 H   0  0  0  0  0  0  0  0  0  0  0  0
   33.5578   41.5340   58.2791 H   0  0  0  0  0  0  0  0  0  0  0  0
   32.3616   36.4777   59.2069 H   0  0  0  0  0  0  0  0  0  0  0  0
  1  2  1  0  0  0  0
  1 17  1  0  0  0  0
  1 18  1  0  0  0  0
  1 19  1  0  0  0  0
  2  3  1  0  0  0  0
  2 20  1  0  0  0  0
  2 21  1  0  0  0  0
  3  4  1  0  0  0  0
  4  5  2  0  0  0  0
  4  6  1  0  0  0  0
  6  7  1  0  0  0  0
  6 22  1  0  0  0  0
  6 23  1  0  0  0  0
  7 16  1  0  0  0  0
  7  8  1  0  0  0  0
  8  9  2  0  0  0  0
  8 24  1  0  0  0  0
  9 10  1  0  0  0  0
 10 16  2  0  0  0  0
 10 11  1  0  0  0  0
 11 12  1  0  0  0  0
 11 13  2  0  0  0  0
 12 25  1  0  0  0  0
 12 26  1  0  0  0  0
 13 14  1  0  0  0  0
 14 15  2  0  0  0  0
 14 27  1  0  0  0  0
 15 16  1  0  0  0  0
M  END
$$$$
