ZINC000000002908      none
 OpenBabel11202420153D

 37 38  0  0  0  0  0  0  0  0999 V2000
   31.9992   40.9471   67.1497 C   0  0  0  0  0  0  0  0  0  0  0  0
   31.0437   40.1199   66.3289 C   0  0  0  0  0  0  0  0  0  0  0  0
   29.9230   40.5281   66.1089 O   0  0  0  0  0  0  0  0  0  0  0  0
   31.4344   38.9265   65.8396 N   0  0  0  0  0  0  0  0  0  0  0  0
   32.7429   38.4500   66.0963 O   0  0  0  0  0  0  0  0  0  0  0  0
   30.5054   38.1223   65.0417 C   0  0  0  0  0  0  0  0  0  0  0  0
   31.0866   37.8968   63.6697 C   0  0  0  0  0  0  0  0  0  0  0  0
   30.8209   38.7938   62.6517 C   0  0  0  0  0  0  0  0  0  0  0  0
   31.3525   38.5894   61.3932 C   0  0  0  0  0  0  0  0  0  0  0  0
   32.1536   37.4829   61.1512 C   0  0  0  0  0  0  0  0  0  0  0  0
   32.6778   37.2796   59.9139 O   0  0  0  0  0  0  0  0  0  0  0  0
   32.3627   38.2458   58.9092 C   0  0  0  0  0  0  0  0  0  0  0  0
   33.0267   37.8575   57.6132 C   0  0  0  0  0  0  0  0  0  0  0  0
   33.4062   38.8340   56.7114 C   0  0  0  0  0  0  0  0  0  0  0  0
   34.0195   38.4783   55.5248 C   0  0  0  0  0  0  0  0  0  0  0  0
   34.2444   37.1457   55.2354 C   0  0  0  0  0  0  0  0  0  0  0  0
   33.8594   36.1686   56.1347 C   0  0  0  0  0  0  0  0  0  0  0  0
   33.2508   36.5246   57.3237 C   0  0  0  0  0  0  0  0  0  0  0  0
   32.4140   36.5813   62.1728 C   0  0  0  0  0  0  0  0  0  0  0  0
   31.8843   36.7930   63.4310 C   0  0  0  0  0  0  0  0  0  0  0  0
   32.8804   41.1829   66.5531 H   0  0  0  0  0  0  0  0  0  0  0  0
   31.5094   41.8716   67.4554 H   0  0  0  0  0  0  0  0  0  0  0  0
   32.2990   40.3852   68.0342 H   0  0  0  0  0  0  0  0  0  0  0  0
   33.2818   39.0494   66.6306 H   0  0  0  0  0  0  0  0  0  0  0  0
   29.5547   38.6480   64.9517 H   0  0  0  0  0  0  0  0  0  0  0  0
   30.3443   37.1615   65.5306 H   0  0  0  0  0  0  0  0  0  0  0  0
   30.1974   39.6552   62.8407 H   0  0  0  0  0  0  0  0  0  0  0  0
   31.1444   39.2902   60.5981 H   0  0  0  0  0  0  0  0  0  0  0  0
   31.2827   38.2833   58.7671 H   0  0  0  0  0  0  0  0  0  0  0  0
   32.7223   39.2259   59.2223 H   0  0  0  0  0  0  0  0  0  0  0  0
   33.2269   39.8752   56.9357 H   0  0  0  0  0  0  0  0  0  0  0  0
   34.3197   39.2415   54.8221 H   0  0  0  0  0  0  0  0  0  0  0  0
   34.7202   36.8675   54.3067 H   0  0  0  0  0  0  0  0  0  0  0  0
   34.0346   35.1271   55.9084 H   0  0  0  0  0  0  0  0  0  0  0  0
   32.9502   35.7614   58.0262 H   0  0  0  0  0  0  0  0  0  0  0  0
   33.0336   35.7166   61.9858 H   0  0  0  0  0  0  0  0  0  0  0  0
   32.0898   36.0933   64.2277 H   0  0  0  0  0  0  0  0  0  0  0  0
  1  2  1  0  0  0  0
  1 21  1  0  0  0  0
  1 22  1  0  0  0  0
  1 23  1  0  0  0  0
  2  3  2  0  0  0  0
  2  4  1  0  0  0  0
  4  5  1  0  0  0  0
  4  6  1  0  0  0  0
  5 24  1  0  0  0  0
  6  7  1  0  0  0  0
  6 25  1  0  0  0  0
  6 26  1  0  0  0  0
  7 20  2  0  0  0  0
  7  8  1  0  0  0  0
  8  9  2  0  0  0  0
  8 27  1  0  0  0  0
  9 10  1  0  0  0  0
  9 28  1  0  0  0  0
 10 11  1  0  0  0  0
 10 19  2  0  0  0  0
 11 12  1  0  0  0  0
 12 13  1  0  0  0  0
 12 29  1  0  0  0  0
 12 30  1  0  0  0  0
 13 18  2  0  0  0  0
 13 14  1  0  0  0  0
 14 15  2  0  0  0  0
 14 31  1  0  0  0  0
 15 16  1  0  0  0  0
 15 32  1  0  0  0  0
 16 17  2  0  0  0  0
 16 33  1  0  0  0  0
 17 18  1  0  0  0  0
 17 34  1  0  0  0  0
 18 35  1  0  0  0  0
 19 20  1  0  0  0  0
 19 36  1  0  0  0  0
 20 37  1  0  0  0  0
M  END
$$$$
