ZINC000000040109      none
 OpenBabel11202420153D

 30 31  0  0  0  0  0  0  0  0999 V2000
   29.7669   35.8228   61.7688 C   0  0  0  0  0  0  0  0  0  0  0  0
   30.9725   36.7201   61.6574 C   0  0  0  0  0  0  0  0  0  0  0  0
   32.0621   36.8802   62.9993 Cl  0  0  0  0  0  0  0  0  0  0  0  0
   31.1985   37.3799   60.5466 C   0  0  0  0  0  0  0  0  0  0  0  0
   32.4042   38.2772   60.4353 C   0  0  0  0  0  0  0  0  0  0  0  0
   32.8529   38.3215   59.0413 N   0  0  0  0  0  0  0  0  0  0  0  0
   33.2099   39.4292   58.3391 C   0  0  0  0  0  0  0  0  0  0  0  0
   33.2101   40.7152   58.8283 N   0  0  0  0  0  0  0  0  0  0  0  0
   33.5559   39.0795   57.1167 N   0  0  0  0  0  0  0  0  0  0  0  0
   33.4421   37.7584   56.9714 C   0  0  0  0  0  0  0  0  0  0  0  0
   32.9948   37.2402   58.1820 C   0  0  0  0  0  0  0  0  0  0  0  0
   32.7892   35.8544   58.3016 C   0  0  0  0  0  0  0  0  0  0  0  0
   32.3980   35.3784   59.3531 O   0  0  0  0  0  0  0  0  0  0  0  0
   33.0298   35.0572   57.2401 N   0  0  0  0  0  0  0  0  0  0  0  0
   32.8889   34.1007   57.3194 H   0  0  0  0  0  0  0  0  0  0  0  0
   33.4624   35.5681   56.0746 C   0  0  0  0  0  0  0  0  0  0  0  0
   33.6693   34.8193   55.1391 O   0  0  0  0  0  0  0  0  0  0  0  0
   33.6774   36.8882   55.9191 N   0  0  0  0  0  0  0  0  0  0  0  0
   34.1554   37.4055   54.6345 C   0  0  0  0  0  0  0  0  0  0  0  0
   29.2061   35.8501   60.8344 H   0  0  0  0  0  0  0  0  0  0  0  0
   30.0912   34.8013   61.9679 H   0  0  0  0  0  0  0  0  0  0  0  0
   29.1313   36.1677   62.5843 H   0  0  0  0  0  0  0  0  0  0  0  0
   30.5206   37.2801   59.7118 H   0  0  0  0  0  0  0  0  0  0  0  0
   33.2059   37.8880   61.0628 H   0  0  0  0  0  0  0  0  0  0  0  0
   32.1406   39.2824   60.7643 H   0  0  0  0  0  0  0  0  0  0  0  0
   33.4809   41.4513   58.2576 H   0  0  0  0  0  0  0  0  0  0  0  0
   32.9396   40.8857   59.7442 H   0  0  0  0  0  0  0  0  0  0  0  0
   34.2778   36.5800   53.9332 H   0  0  0  0  0  0  0  0  0  0  0  0
   33.4307   38.1158   54.2365 H   0  0  0  0  0  0  0  0  0  0  0  0
   35.1132   37.9054   54.7778 H   0  0  0  0  0  0  0  0  0  0  0  0
  1  2  1  0  0  0  0
  1 20  1  0  0  0  0
  1 21  1  0  0  0  0
  1 22  1  0  0  0  0
  2  3  1  0  0  0  0
  2  4  2  0  0  0  0
  4  5  1  0  0  0  0
  4 23  1  0  0  0  0
  5  6  1  0  0  0  0
  5 24  1  0  0  0  0
  5 25  1  0  0  0  0
  6 11  1  0  0  0  0
  6  7  1  0  0  0  0
  7  8  1  0  0  0  0
  7  9  2  0  0  0  0
  8 26  1  0  0  0  0
  8 27  1  0  0  0  0
  9 10  1  0  0  0  0
 10 18  1  0  0  0  0
 10 11  2  0  0  0  0
 11 12  1  0  0  0  0
 12 13  2  0  0  0  0
 12 14  1  0  0  0  0
 14 15  1  0  0  0  0
 14 16  1  0  0  0  0
 16 17  2  0  0  0  0
 16 18  1  0  0  0  0
 18 19  1  0  0  0  0
 19 28  1  0  0  0  0
 19 29  1  0  0  0  0
 19 30  1  0  0  0  0
M  END
$$$$
