ZINC000000041485      none
 OpenBabel11202420153D

 35 37  0  0  0  0  0  0  0  0999 V2000
   33.4315   34.8717   54.9798 C   0  0  0  0  0  0  0  0  0  0  0  0
   34.0933   35.0464   56.2342 O   0  0  0  0  0  0  0  0  0  0  0  0
   33.3089   35.2954   57.3166 C   0  0  0  0  0  0  0  0  0  0  0  0
   32.8257   34.2391   58.0738 C   0  0  0  0  0  0  0  0  0  0  0  0
   32.0290   34.4758   59.1787 C   0  0  0  0  0  0  0  0  0  0  0  0
   31.7536   35.7973   59.5448 C   0  0  0  0  0  0  0  0  0  0  0  0
   32.2119   36.8594   58.7745 C   0  0  0  0  0  0  0  0  0  0  0  0
   31.8940   38.1371   59.1132 O   0  0  0  0  0  0  0  0  0  0  0  0
   32.7900   38.8168   59.9948 C   0  0  0  0  0  0  0  0  0  0  0  0
   32.9970   36.6073   57.6554 C   0  0  0  0  0  0  0  0  0  0  0  0
   33.4580   37.6385   56.8961 O   0  0  0  0  0  0  0  0  0  0  0  0
   32.4800   38.4899   56.2957 C   0  0  0  0  0  0  0  0  0  0  0  0
   30.9381   36.0085   60.7643 C   0  0  0  0  0  0  0  0  0  0  0  0
   30.3206   37.0560   61.2239 N   0  0  0  0  0  0  0  0  0  0  0  0
   29.6711   36.6878   62.4145 N   0  0  0  0  0  0  0  0  0  0  0  0
   29.1307   37.2703   62.9709 H   0  0  0  0  0  0  0  0  0  0  0  0
   29.9293   35.3789   62.6512 C   0  0  0  0  0  0  0  0  0  0  0  0
   30.7103   34.9299   61.6630 C   0  0  0  0  0  0  0  0  0  0  0  0
   31.3179   33.5715   61.4292 C   0  0  0  0  0  0  0  0  0  0  0  0
   31.4350   33.3165   59.9285 C   0  0  0  0  0  0  0  0  0  0  0  0
   32.7458   34.0270   55.0453 H   0  0  0  0  0  0  0  0  0  0  0  0
   32.8728   35.7750   54.7349 H   0  0  0  0  0  0  0  0  0  0  0  0
   34.1711   34.6799   54.2024 H   0  0  0  0  0  0  0  0  0  0  0  0
   33.0734   33.2245   57.7986 H   0  0  0  0  0  0  0  0  0  0  0  0
   32.4516   39.8432   60.1363 H   0  0  0  0  0  0  0  0  0  0  0  0
   32.8109   38.3050   60.9570 H   0  0  0  0  0  0  0  0  0  0  0  0
   33.7910   38.8205   59.5635 H   0  0  0  0  0  0  0  0  0  0  0  0
   31.9225   39.0091   57.0753 H   0  0  0  0  0  0  0  0  0  0  0  0
   32.9770   39.2201   55.6569 H   0  0  0  0  0  0  0  0  0  0  0  0
   31.7945   37.8902   55.6970 H   0  0  0  0  0  0  0  0  0  0  0  0
   29.5682   34.8008   63.4890 H   0  0  0  0  0  0  0  0  0  0  0  0
   32.3085   33.5338   61.8824 H   0  0  0  0  0  0  0  0  0  0  0  0
   30.6836   32.8076   61.8790 H   0  0  0  0  0  0  0  0  0  0  0  0
   30.4416   33.1125   59.5290 H   0  0  0  0  0  0  0  0  0  0  0  0
   32.0623   32.4390   59.7716 H   0  0  0  0  0  0  0  0  0  0  0  0
  1  2  1  0  0  0  0
  1 21  1  0  0  0  0
  1 22  1  0  0  0  0
  1 23  1  0  0  0  0
  2  3  1  0  0  0  0
  3 10  2  0  0  0  0
  3  4  1  0  0  0  0
  4  5  2  0  0  0  0
  4 24  1  0  0  0  0
  5 20  1  0  0  0  0
  5  6  1  0  0  0  0
  6  7  2  0  0  0  0
  6 13  1  0  0  0  0
  7  8  1  0  0  0  0
  7 10  1  0  0  0  0
  8  9  1  0  0  0  0
  9 25  1  0  0  0  0
  9 26  1  0  0  0  0
  9 27  1  0  0  0  0
 10 11  1  0  0  0  0
 11 12  1  0  0  0  0
 12 28  1  0  0  0  0
 12 29  1  0  0  0  0
 12 30  1  0  0  0  0
 13 18  1  0  0  0  0
 13 14  2  0  0  0  0
 14 15  1  0  0  0  0
 15 16  1  0  0  0  0
 15 17  1  0  0  0  0
 17 18  2  0  0  0  0
 17 31  1  0  0  0  0
 18 19  1  0  0  0  0
 19 20  1  0  0  0  0
 19 32  1  0  0  0  0
 19 33  1  0  0  0  0
 20 34  1  0  0  0  0
 20 35  1  0  0  0  0
M  END
$$$$
