ZINC000000035364      none
 OpenBabel11202420153D

 38 41  0  0  0  0  0  0  0  0999 V2000
   32.7797   33.9405   59.9812 O   0  0  0  0  0  0  0  0  0  0  0  0
   32.0886   34.7656   59.4166 C   0  0  0  0  0  0  0  0  0  0  0  0
   31.3287   34.4019   58.3646 N   0  0  0  0  0  0  0  0  0  0  0  0
   31.3312   33.0108   57.9053 C   0  0  0  0  0  0  0  0  0  0  0  0
   31.8764   32.7308   56.5034 C   0  0  0  0  0  0  0  0  0  0  0  0
   30.3722   32.6391   56.7725 C   0  0  0  0  0  0  0  0  0  0  0  0
   32.0816   36.1689   59.8841 C   0  0  0  0  0  0  0  0  0  0  0  0
   31.6827   36.4912   61.1719 C   0  0  0  0  0  0  0  0  0  0  0  0
   31.6940   37.8332   61.5831 C   0  0  0  0  0  0  0  0  0  0  0  0
   31.2714   38.1699   62.9640 C   0  0  0  0  0  0  0  0  0  0  0  0
   30.1918   39.0259   63.1763 C   0  0  0  0  0  0  0  0  0  0  0  0
   29.7998   39.3315   64.4636 C   0  0  0  0  0  0  0  0  0  0  0  0
   30.4828   38.7990   65.5423 C   0  0  0  0  0  0  0  0  0  0  0  0
   31.5584   37.9536   65.3377 C   0  0  0  0  0  0  0  0  0  0  0  0
   31.9559   37.6363   64.0548 C   0  0  0  0  0  0  0  0  0  0  0  0
   32.0649   38.8020   60.7702 N   0  0  0  0  0  0  0  0  0  0  0  0
   32.4540   38.5574   59.5175 C   0  0  0  0  0  0  0  0  0  0  0  0
   32.8469   39.6069   58.6655 C   0  0  0  0  0  0  0  0  0  0  0  0
   33.2402   39.3317   57.3923 C   0  0  0  0  0  0  0  0  0  0  0  0
   33.2609   38.0233   56.9138 C   0  0  0  0  0  0  0  0  0  0  0  0
   32.8883   36.9820   57.7103 C   0  0  0  0  0  0  0  0  0  0  0  0
   32.4773   37.2281   59.0263 C   0  0  0  0  0  0  0  0  0  0  0  0
   30.7771   35.0605   57.9140 H   0  0  0  0  0  0  0  0  0  0  0  0
   31.5146   32.2618   58.6755 H   0  0  0  0  0  0  0  0  0  0  0  0
   32.2331   33.5815   55.9229 H   0  0  0  0  0  0  0  0  0  0  0  0
   32.4181   31.7972   56.3514 H   0  0  0  0  0  0  0  0  0  0  0  0
   29.9251   31.6455   56.7974 H   0  0  0  0  0  0  0  0  0  0  0  0
   29.7392   33.4296   56.3693 H   0  0  0  0  0  0  0  0  0  0  0  0
   31.3699   35.7154   61.8549 H   0  0  0  0  0  0  0  0  0  0  0  0
   29.6603   39.4454   62.3348 H   0  0  0  0  0  0  0  0  0  0  0  0
   28.9607   39.9910   64.6293 H   0  0  0  0  0  0  0  0  0  0  0  0
   30.1753   39.0446   66.5481 H   0  0  0  0  0  0  0  0  0  0  0  0
   32.0879   37.5408   66.1837 H   0  0  0  0  0  0  0  0  0  0  0  0
   32.7954   36.9756   63.8963 H   0  0  0  0  0  0  0  0  0  0  0  0
   32.8358   40.6267   59.0209 H   0  0  0  0  0  0  0  0  0  0  0  0
   33.5406   40.1403   56.7423 H   0  0  0  0  0  0  0  0  0  0  0  0
   33.5768   37.8318   55.8990 H   0  0  0  0  0  0  0  0  0  0  0  0
   32.9092   35.9721   57.3281 H   0  0  0  0  0  0  0  0  0  0  0  0
  1  2  2  0  0  0  0
  2  3  1  0  0  0  0
  2  7  1  0  0  0  0
  3  4  1  0  0  0  0
  3 23  1  0  0  0  0
  4  6  1  0  0  0  0
  4  5  1  0  0  0  0
  4 24  1  0  0  0  0
  5  6  1  0  0  0  0
  5 25  1  0  0  0  0
  5 26  1  0  0  0  0
  6 27  1  0  0  0  0
  6 28  1  0  0  0  0
  7 22  2  0  0  0  0
  7  8  1  0  0  0  0
  8  9  2  0  0  0  0
  8 29  1  0  0  0  0
  9 10  1  0  0  0  0
  9 16  1  0  0  0  0
 10 15  2  0  0  0  0
 10 11  1  0  0  0  0
 11 12  2  0  0  0  0
 11 30  1  0  0  0  0
 12 13  1  0  0  0  0
 12 31  1  0  0  0  0
 13 14  2  0  0  0  0
 13 32  1  0  0  0  0
 14 15  1  0  0  0  0
 14 33  1  0  0  0  0
 15 34  1  0  0  0  0
 16 17  2  0  0  0  0
 17 22  1  0  0  0  0
 17 18  1  0  0  0  0
 18 19  2  0  0  0  0
 18 35  1  0  0  0  0
 19 20  1  0  0  0  0
 19 36  1  0  0  0  0
 20 21  2  0  0  0  0
 20 37  1  0  0  0  0
 21 22  1  0  0  0  0
 21 38  1  0  0  0  0
M  END
$$$$
