ZINC000000037555      none
 OpenBabel11202420153D

 35 37  0  0  0  0  0  0  0  0999 V2000
   30.0033   35.6171   63.7262 O   0  0  0  0  0  0  0  0  0  0  0  0
   30.5621   36.6461   63.3947 C   0  0  0  0  0  0  0  0  0  0  0  0
   31.1900   37.4986   64.4086 C   0  0  0  0  0  0  0  0  0  0  0  0
   32.4864   37.4052   64.8305 C   0  0  0  0  0  0  0  0  0  0  0  0
   32.8132   38.3314   65.7923 C   0  0  0  0  0  0  0  0  0  0  0  0
   31.8205   39.1555   66.1473 C   0  0  0  0  0  0  0  0  0  0  0  0
   30.3978   38.8098   65.2714 S   0  0  0  0  0  0  0  0  0  0  0  0
   30.6039   37.0020   62.0956 N   0  0  0  0  0  0  0  0  0  0  0  0
   29.9800   36.1616   61.0622 C   0  0  0  0  0  0  0  0  0  0  0  0
   31.0085   35.9073   59.9552 C   0  0  0  0  0  0  0  0  0  0  0  0
   31.5354   37.1920   59.4762 N   0  0  0  0  0  0  0  0  0  0  0  0
   32.3526   37.0123   58.3578 C   0  0  0  0  0  0  0  0  0  0  0  0
   32.5680   35.7371   57.8507 C   0  0  0  0  0  0  0  0  0  0  0  0
   33.3770   35.5629   56.7450 C   0  0  0  0  0  0  0  0  0  0  0  0
   33.9722   36.6561   56.1428 C   0  0  0  0  0  0  0  0  0  0  0  0
   33.7598   37.9270   56.6449 C   0  0  0  0  0  0  0  0  0  0  0  0
   32.9521   38.1083   57.7503 C   0  0  0  0  0  0  0  0  0  0  0  0
   32.2516   37.9050   60.5422 C   0  0  0  0  0  0  0  0  0  0  0  0
   31.2740   38.2414   61.6734 C   0  0  0  0  0  0  0  0  0  0  0  0
   33.1848   36.6764   64.4461 H   0  0  0  0  0  0  0  0  0  0  0  0
   33.7992   38.3898   66.2292 H   0  0  0  0  0  0  0  0  0  0  0  0
   31.9094   39.9378   66.8867 H   0  0  0  0  0  0  0  0  0  0  0  0
   29.1136   36.6757   60.6460 H   0  0  0  0  0  0  0  0  0  0  0  0
   29.6707   35.2124   61.4998 H   0  0  0  0  0  0  0  0  0  0  0  0
   30.5312   35.3793   59.1296 H   0  0  0  0  0  0  0  0  0  0  0  0
   31.8257   35.3033   60.3497 H   0  0  0  0  0  0  0  0  0  0  0  0
   32.1038   34.8828   58.3208 H   0  0  0  0  0  0  0  0  0  0  0  0
   33.5452   34.5717   56.3506 H   0  0  0  0  0  0  0  0  0  0  0  0
   34.6080   36.5167   55.2809 H   0  0  0  0  0  0  0  0  0  0  0  0
   34.2265   38.7787   56.1723 H   0  0  0  0  0  0  0  0  0  0  0  0
   32.7863   39.1011   58.1418 H   0  0  0  0  0  0  0  0  0  0  0  0
   33.0515   37.2734   60.9286 H   0  0  0  0  0  0  0  0  0  0  0  0
   32.6759   38.8261   60.1424 H   0  0  0  0  0  0  0  0  0  0  0  0
   30.5321   38.9554   61.3159 H   0  0  0  0  0  0  0  0  0  0  0  0
   31.8202   38.6671   62.5150 H   0  0  0  0  0  0  0  0  0  0  0  0
  1  2  2  0  0  0  0
  2  3  1  0  0  0  0
  2  8  1  0  0  0  0
  3  7  1  0  0  0  0
  3  4  2  0  0  0  0
  4  5  1  0  0  0  0
  4 20  1  0  0  0  0
  5  6  2  0  0  0  0
  5 21  1  0  0  0  0
  6  7  1  0  0  0  0
  6 22  1  0  0  0  0
  8 19  1  0  0  0  0
  8  9  1  0  0  0  0
  9 10  1  0  0  0  0
  9 23  1  0  0  0  0
  9 24  1  0  0  0  0
 10 11  1  0  0  0  0
 10 25  1  0  0  0  0
 10 26  1  0  0  0  0
 11 12  1  0  0  0  0
 11 18  1  0  0  0  0
 12 17  2  0  0  0  0
 12 13  1  0  0  0  0
 13 14  2  0  0  0  0
 13 27  1  0  0  0  0
 14 15  1  0  0  0  0
 14 28  1  0  0  0  0
 15 16  2  0  0  0  0
 15 29  1  0  0  0  0
 16 17  1  0  0  0  0
 16 30  1  0  0  0  0
 17 31  1  0  0  0  0
 18 19  1  0  0  0  0
 18 32  1  0  0  0  0
 18 33  1  0  0  0  0
 19 34  1  0  0  0  0
 19 35  1  0  0  0  0
M  END
$$$$
