ZINC000000030222      none
 OpenBabel11202420163D

 47 48  0  0  0  0  0  0  0  0999 V2000
   32.0942   34.9985   62.5543 C   0  0  0  0  0  0  0  0  0  0  0  0
   31.9085   36.4296   62.0459 C   0  0  0  0  0  0  0  0  0  0  0  0
   30.6887   36.5063   61.2381 N   0  0  0  0  0  0  0  0  0  0  0  0
   30.7493   36.2625   59.7947 C   0  0  0  0  0  0  0  0  0  0  0  0
   31.6738   37.2655   59.1542 C   0  0  0  0  0  0  0  0  0  0  0  0
   32.3840   36.9241   58.0184 C   0  0  0  0  0  0  0  0  0  0  0  0
   33.2283   37.8458   57.4281 C   0  0  0  0  0  0  0  0  0  0  0  0
   33.3706   39.1054   57.9796 C   0  0  0  0  0  0  0  0  0  0  0  0
   32.6643   39.4450   59.1184 C   0  0  0  0  0  0  0  0  0  0  0  0
   31.8159   38.5251   59.7057 C   0  0  0  0  0  0  0  0  0  0  0  0
   29.5107   36.8014   61.8227 C   0  0  0  0  0  0  0  0  0  0  0  0
   28.4983   36.8650   61.1523 O   0  0  0  0  0  0  0  0  0  0  0  0
   29.4496   37.0471   63.2768 C   0  0  0  0  0  0  0  0  0  0  0  0
   29.2146   35.9873   64.1563 C   0  0  0  0  0  0  0  0  0  0  0  0
   29.1517   36.2212   65.5173 C   0  0  0  0  0  0  0  0  0  0  0  0
   28.9226   35.1900   66.3740 O   0  0  0  0  0  0  0  0  0  0  0  0
   30.0671   34.4963   66.8747 C   0  0  0  0  0  0  0  0  0  0  0  0
   29.3231   37.5113   66.0119 C   0  0  0  0  0  0  0  0  0  0  0  0
   29.2613   37.7385   67.3502 O   0  0  0  0  0  0  0  0  0  0  0  0
   27.9779   38.0490   67.8970 C   0  0  0  0  0  0  0  0  0  0  0  0
   29.5574   38.5692   65.1375 C   0  0  0  0  0  0  0  0  0  0  0  0
   29.7236   39.8285   65.6237 O   0  0  0  0  0  0  0  0  0  0  0  0
   31.0567   40.2280   65.9482 C   0  0  0  0  0  0  0  0  0  0  0  0
   29.6208   38.3408   63.7757 C   0  0  0  0  0  0  0  0  0  0  0  0
   32.9015   34.9749   63.2862 H   0  0  0  0  0  0  0  0  0  0  0  0
   31.1705   34.6560   63.0207 H   0  0  0  0  0  0  0  0  0  0  0  0
   32.3430   34.3452   61.7179 H   0  0  0  0  0  0  0  0  0  0  0  0
   32.7665   36.7128   61.4361 H   0  0  0  0  0  0  0  0  0  0  0  0
   31.8257   37.1088   62.8944 H   0  0  0  0  0  0  0  0  0  0  0  0
   31.1234   35.2551   59.6119 H   0  0  0  0  0  0  0  0  0  0  0  0
   29.7518   36.3629   59.3670 H   0  0  0  0  0  0  0  0  0  0  0  0
   32.2763   35.9386   57.5902 H   0  0  0  0  0  0  0  0  0  0  0  0
   33.7804   37.5803   56.5386 H   0  0  0  0  0  0  0  0  0  0  0  0
   34.0336   39.8240   57.5210 H   0  0  0  0  0  0  0  0  0  0  0  0
   32.7757   40.4291   59.5494 H   0  0  0  0  0  0  0  0  0  0  0  0
   31.2645   38.7904   60.5956 H   0  0  0  0  0  0  0  0  0  0  0  0
   29.0817   34.9864   63.7733 H   0  0  0  0  0  0  0  0  0  0  0  0
   29.7445   33.6995   67.5451 H   0  0  0  0  0  0  0  0  0  0  0  0
   30.6248   34.0671   66.0424 H   0  0  0  0  0  0  0  0  0  0  0  0
   30.7049   35.1928   67.4187 H   0  0  0  0  0  0  0  0  0  0  0  0
   28.0694   38.2070   68.9716 H   0  0  0  0  0  0  0  0  0  0  0  0
   27.5926   38.9544   67.4280 H   0  0  0  0  0  0  0  0  0  0  0  0
   27.2930   37.2224   67.7082 H   0  0  0  0  0  0  0  0  0  0  0  0
   31.6797   40.1741   65.0553 H   0  0  0  0  0  0  0  0  0  0  0  0
   31.0481   41.2509   66.3240 H   0  0  0  0  0  0  0  0  0  0  0  0
   31.4592   39.5634   66.7125 H   0  0  0  0  0  0  0  0  0  0  0  0
   29.8028   39.1616   63.0978 H   0  0  0  0  0  0  0  0  0  0  0  0
  1  2  1  0  0  0  0
  1 25  1  0  0  0  0
  1 26  1  0  0  0  0
  1 27  1  0  0  0  0
  2  3  1  0  0  0  0
  2 28  1  0  0  0  0
  2 29  1  0  0  0  0
  3  4  1  0  0  0  0
  3 11  1  0  0  0  0
  4  5  1  0  0  0  0
  4 30  1  0  0  0  0
  4 31  1  0  0  0  0
  5 10  2  0  0  0  0
  5  6  1  0  0  0  0
  6  7  2  0  0  0  0
  6 32  1  0  0  0  0
  7  8  1  0  0  0  0
  7 33  1  0  0  0  0
  8  9  2  0  0  0  0
  8 34  1  0  0  0  0
  9 10  1  0  0  0  0
  9 35  1  0  0  0  0
 10 36  1  0  0  0  0
 11 12  2  0  0  0  0
 11 13  1  0  0  0  0
 13 24  2  0  0  0  0
 13 14  1  0  0  0  0
 14 15  2  0  0  0  0
 14 37  1  0  0  0  0
 15 16  1  0  0  0  0
 15 18  1  0  0  0  0
 16 17  1  0  0  0  0
 17 38  1  0  0  0  0
 17 39  1  0  0  0  0
 17 40  1  0  0  0  0
 18 19  1  0  0  0  0
 18 21  2  0  0  0  0
 19 20  1  0  0  0  0
 20 41  1  0  0  0  0
 20 42  1  0  0  0  0
 20 43  1  0  0  0  0
 21 22  1  0  0  0  0
 21 24  1  0  0  0  0
 22 23  1  0  0  0  0
 23 44  1  0  0  0  0
 23 45  1  0  0  0  0
 23 46  1  0  0  0  0
 24 47  1  0  0  0  0
M  END
$$$$
