ZINC000000036630      none
 OpenBabel11202420153D

 33 36  0  0  0  0  0  0  0  0999 V2000
   34.7827   40.8407   58.8055 O   0  0  0  0  0  0  0  0  0  0  0  0
   33.9176   40.0215   58.5786 C   0  0  0  0  0  0  0  0  0  0  0  0
   33.4266   39.8533   57.1715 C   0  0  0  0  0  0  0  0  0  0  0  0
   33.7656   38.5329   56.6529 N   0  0  0  0  0  0  0  0  0  0  0  0
   33.2641   37.4461   57.1594 C   0  0  0  0  0  0  0  0  0  0  0  0
   33.6064   36.1422   56.5429 C   0  0  0  0  0  0  0  0  0  0  0  0
   33.6555   34.9893   57.3256 C   0  0  0  0  0  0  0  0  0  0  0  0
   33.9686   33.7773   56.7450 C   0  0  0  0  0  0  0  0  0  0  0  0
   34.2456   33.7066   55.3913 C   0  0  0  0  0  0  0  0  0  0  0  0
   34.2041   34.8481   54.6108 C   0  0  0  0  0  0  0  0  0  0  0  0
   33.8862   36.0647   55.1792 C   0  0  0  0  0  0  0  0  0  0  0  0
   32.3708   37.4695   58.3223 C   0  0  0  0  0  0  0  0  0  0  0  0
   31.3060   36.6500   58.5020 O   0  0  0  0  0  0  0  0  0  0  0  0
   30.6755   36.9184   59.6617 C   0  0  0  0  0  0  0  0  0  0  0  0
   29.5613   36.3703   60.2869 C   0  0  0  0  0  0  0  0  0  0  0  0
   29.1422   36.8673   61.5022 C   0  0  0  0  0  0  0  0  0  0  0  0
   29.8201   37.9136   62.1119 C   0  0  0  0  0  0  0  0  0  0  0  0
   30.9183   38.4671   61.5152 C   0  0  0  0  0  0  0  0  0  0  0  0
   31.3594   37.9761   60.2859 C   0  0  0  0  0  0  0  0  0  0  0  0
   32.4685   38.3140   59.3877 C   0  0  0  0  0  0  0  0  0  0  0  0
   33.4301   39.2945   59.5921 N   0  0  0  0  0  0  0  0  0  0  0  0
   32.3438   39.9779   57.1529 H   0  0  0  0  0  0  0  0  0  0  0  0
   33.8850   40.6138   56.5392 H   0  0  0  0  0  0  0  0  0  0  0  0
   33.4441   35.0440   58.3832 H   0  0  0  0  0  0  0  0  0  0  0  0
   34.0021   32.8828   57.3493 H   0  0  0  0  0  0  0  0  0  0  0  0
   34.4949   32.7566   54.9422 H   0  0  0  0  0  0  0  0  0  0  0  0
   34.4206   34.7869   53.5545 H   0  0  0  0  0  0  0  0  0  0  0  0
   33.8536   36.9551   54.5687 H   0  0  0  0  0  0  0  0  0  0  0  0
   29.0251   35.5566   59.8212 H   0  0  0  0  0  0  0  0  0  0  0  0
   28.2767   36.4382   61.9851 H   0  0  0  0  0  0  0  0  0  0  0  0
   29.4781   38.2925   63.0636 H   0  0  0  0  0  0  0  0  0  0  0  0
   31.4424   39.2814   61.9934 H   0  0  0  0  0  0  0  0  0  0  0  0
   33.7570   39.4566   60.4908 H   0  0  0  0  0  0  0  0  0  0  0  0
  1  2  2  0  0  0  0
  2 21  1  0  0  0  0
  2  3  1  0  0  0  0
  3  4  1  0  0  0  0
  3 22  1  0  0  0  0
  3 23  1  0  0  0  0
  4  5  2  0  0  0  0
  5  6  1  0  0  0  0
  5 12  1  0  0  0  0
  6 11  2  0  0  0  0
  6  7  1  0  0  0  0
  7  8  2  0  0  0  0
  7 24  1  0  0  0  0
  8  9  1  0  0  0  0
  8 25  1  0  0  0  0
  9 10  2  0  0  0  0
  9 26  1  0  0  0  0
 10 11  1  0  0  0  0
 10 27  1  0  0  0  0
 11 28  1  0  0  0  0
 12 20  2  0  0  0  0
 12 13  1  0  0  0  0
 13 14  1  0  0  0  0
 14 19  2  0  0  0  0
 14 15  1  0  0  0  0
 15 16  2  0  0  0  0
 15 29  1  0  0  0  0
 16 17  1  0  0  0  0
 16 30  1  0  0  0  0
 17 18  2  0  0  0  0
 17 31  1  0  0  0  0
 18 19  1  0  0  0  0
 18 32  1  0  0  0  0
 19 20  1  0  0  0  0
 20 21  1  0  0  0  0
 21 33  1  0  0  0  0
M  END
$$$$
