ZINC000000035109      none
 OpenBabel11202420153D

 36 38  0  0  0  0  0  0  0  0999 V2000
   33.6076   37.0366   66.1293 C   0  0  0  0  0  0  0  0  0  0  0  0
   32.7241   38.1479   65.7681 N   0  0  0  0  0  0  0  0  0  0  0  0
   32.0821   38.3393   64.5766 C   0  0  0  0  0  0  0  0  0  0  0  0
   32.1599   37.2852   63.1669 S   0  0  0  0  0  0  0  0  0  0  0  0
   31.0762   38.1923   62.0360 C   0  0  0  0  0  0  0  0  0  0  0  0
   31.5194   37.9532   60.6155 C   0  0  0  0  0  0  0  0  0  0  0  0
   31.0611   37.0236   59.9856 O   0  0  0  0  0  0  0  0  0  0  0  0
   32.4249   38.7726   60.0453 N   0  0  0  0  0  0  0  0  0  0  0  0
   32.8363   38.5507   58.7264 C   0  0  0  0  0  0  0  0  0  0  0  0
   33.2280   39.6193   57.9306 C   0  0  0  0  0  0  0  0  0  0  0  0
   33.6339   39.3969   56.6294 C   0  0  0  0  0  0  0  0  0  0  0  0
   33.6502   38.1121   56.1185 C   0  0  0  0  0  0  0  0  0  0  0  0
   33.2612   37.0459   56.9085 C   0  0  0  0  0  0  0  0  0  0  0  0
   32.8542   37.2615   58.2105 C   0  0  0  0  0  0  0  0  0  0  0  0
   31.4006   39.4585   64.6759 N   0  0  0  0  0  0  0  0  0  0  0  0
   31.5625   39.9733   65.8421 N   0  0  0  0  0  0  0  0  0  0  0  0
   32.3667   39.2184   66.5581 C   0  0  0  0  0  0  0  0  0  0  0  0
   32.8028   39.4697   67.9406 C   0  0  0  0  0  0  0  0  0  0  0  0
   32.4468   40.5361   68.7106 C   0  0  0  0  0  0  0  0  0  0  0  0
   33.0881   40.3706   69.9534 C   0  0  0  0  0  0  0  0  0  0  0  0
   33.8029   39.2301   69.8812 C   0  0  0  0  0  0  0  0  0  0  0  0
   33.6285   38.6882   68.6645 O   0  0  0  0  0  0  0  0  0  0  0  0
   34.6350   37.2894   65.8678 H   0  0  0  0  0  0  0  0  0  0  0  0
   33.5404   36.8527   67.2015 H   0  0  0  0  0  0  0  0  0  0  0  0
   33.3047   36.1407   65.5873 H   0  0  0  0  0  0  0  0  0  0  0  0
   31.1290   39.2580   62.2586 H   0  0  0  0  0  0  0  0  0  0  0  0
   30.0501   37.8457   62.1597 H   0  0  0  0  0  0  0  0  0  0  0  0
   32.7914   39.5160   60.5492 H   0  0  0  0  0  0  0  0  0  0  0  0
   33.2110   40.6236   58.3275 H   0  0  0  0  0  0  0  0  0  0  0  0
   33.9383   40.2277   56.0099 H   0  0  0  0  0  0  0  0  0  0  0  0
   33.9673   37.9409   55.1005 H   0  0  0  0  0  0  0  0  0  0  0  0
   33.2752   36.0435   56.5068 H   0  0  0  0  0  0  0  0  0  0  0  0
   32.5498   36.4284   58.8268 H   0  0  0  0  0  0  0  0  0  0  0  0
   31.7966   41.3495   68.4241 H   0  0  0  0  0  0  0  0  0  0  0  0
   33.0233   41.0348   70.8025 H   0  0  0  0  0  0  0  0  0  0  0  0
   34.4150   38.8201   70.6709 H   0  0  0  0  0  0  0  0  0  0  0  0
  1  2  1  0  0  0  0
  1 23  1  0  0  0  0
  1 24  1  0  0  0  0
  1 25  1  0  0  0  0
  2 17  1  0  0  0  0
  2  3  1  0  0  0  0
  3  4  1  0  0  0  0
  3 15  2  0  0  0  0
  4  5  1  0  0  0  0
  5  6  1  0  0  0  0
  5 26  1  0  0  0  0
  5 27  1  0  0  0  0
  6  7  2  0  0  0  0
  6  8  1  0  0  0  0
  8  9  1  0  0  0  0
  8 28  1  0  0  0  0
  9 14  2  0  0  0  0
  9 10  1  0  0  0  0
 10 11  2  0  0  0  0
 10 29  1  0  0  0  0
 11 12  1  0  0  0  0
 11 30  1  0  0  0  0
 12 13  2  0  0  0  0
 12 31  1  0  0  0  0
 13 14  1  0  0  0  0
 13 32  1  0  0  0  0
 14 33  1  0  0  0  0
 15 16  1  0  0  0  0
 16 17  2  0  0  0  0
 17 18  1  0  0  0  0
 18 22  1  0  0  0  0
 18 19  2  0  0  0  0
 19 20  1  0  0  0  0
 19 34  1  0  0  0  0
 20 21  2  0  0  0  0
 20 35  1  0  0  0  0
 21 22  1  0  0  0  0
 21 36  1  0  0  0  0
M  END
$$$$
