ZINC000000033795      none
 OpenBabel11202420153D

 50 52  0  0  1  0  0  0  0  0999 V2000
   29.7806   39.2598   66.7897 O   0  0  0  0  0  0  0  0  0  0  0  0
   30.8612   38.7157   66.7046 C   0  0  0  0  0  0  0  0  0  0  0  0
   32.0246   39.2189   67.5195 C   0  0  0  0  0  0  0  0  0  0  0  0
   31.5075   39.8311   68.8230 C   0  0  0  0  0  0  0  0  0  0  0  0
   32.6888   40.3420   69.6503 C   0  0  0  0  0  0  0  0  0  0  0  0
   33.4476   41.4051   68.8535 C   0  0  0  0  0  0  0  0  0  0  0  0
   33.9646   40.7931   67.5500 C   0  0  0  0  0  0  0  0  0  0  0  0
   32.7835   40.2821   66.7228 C   0  0  0  0  0  0  0  0  0  0  0  0
   31.0215   37.6608   65.8812 N   0  0  0  0  0  0  0  0  0  0  0  0
   32.3182   36.9793   65.7545 C   0  0  0  0  0  0  0  0  0  0  0  0
   32.5760   36.6889   64.3010 C   0  0  0  0  0  0  0  0  0  0  0  0
   33.6902   36.3436   63.9689 O   0  0  0  0  0  0  0  0  0  0  0  0
   31.6356   36.7933   63.3611 N   0  0  0  0  0  0  0  0  0  0  0  0
   31.9879   36.3903   61.9974 C   0  0  0  0  0  0  0  0  0  0  0  0
   31.8213   37.5833   61.0540 C   0  0  0  0  0  0  0  0  0  0  0  0
   32.1837   37.1687   59.6512 C   0  0  0  0  0  0  0  0  0  0  0  0
   32.7103   38.0952   58.7708 C   0  0  0  0  0  0  0  0  0  0  0  0
   33.0422   37.7150   57.4839 C   0  0  0  0  0  0  0  0  0  0  0  0
   32.8478   36.4081   57.0774 C   0  0  0  0  0  0  0  0  0  0  0  0
   32.3217   35.4814   57.9580 C   0  0  0  0  0  0  0  0  0  0  0  0
   31.9892   35.8618   59.2447 C   0  0  0  0  0  0  0  0  0  0  0  0
   30.2848   37.2857   63.5941 C   0  0  1  0  0  0  0  0  0  0  0  0
   30.2306   38.3352   63.3050 H   0  0  0  0  0  0  0  0  0  0  0  0
   29.3661   36.5321   62.8002 O   0  0  0  0  0  0  0  0  0  0  0  0
   29.9052   37.1443   65.0714 C   0  0  0  0  0  0  0  0  0  0  0  0
   32.6940   38.3896   67.7481 H   0  0  0  0  0  0  0  0  0  0  0  0
   30.8382   40.6604   68.5946 H   0  0  0  0  0  0  0  0  0  0  0  0
   30.9670   39.0737   69.3907 H   0  0  0  0  0  0  0  0  0  0  0  0
   33.3581   39.5126   69.8788 H   0  0  0  0  0  0  0  0  0  0  0  0
   32.3204   40.7781   70.5789 H   0  0  0  0  0  0  0  0  0  0  0  0
   34.2891   41.7692   69.4428 H   0  0  0  0  0  0  0  0  0  0  0  0
   32.7782   42.2345   68.6250 H   0  0  0  0  0  0  0  0  0  0  0  0
   34.6340   39.9637   67.7785 H   0  0  0  0  0  0  0  0  0  0  0  0
   34.5052   41.5505   66.9824 H   0  0  0  0  0  0  0  0  0  0  0  0
   33.1518   39.8460   65.7942 H   0  0  0  0  0  0  0  0  0  0  0  0
   32.1140   41.1115   66.4943 H   0  0  0  0  0  0  0  0  0  0  0  0
   32.2958   36.0446   66.3151 H   0  0  0  0  0  0  0  0  0  0  0  0
   33.1080   37.6216   66.1441 H   0  0  0  0  0  0  0  0  0  0  0  0
   31.3330   35.5799   61.6774 H   0  0  0  0  0  0  0  0  0  0  0  0
   33.0235   36.0510   61.9748 H   0  0  0  0  0  0  0  0  0  0  0  0
   32.4761   38.3937   61.3740 H   0  0  0  0  0  0  0  0  0  0  0  0
   30.7857   37.9224   61.0765 H   0  0  0  0  0  0  0  0  0  0  0  0
   32.8619   39.1163   59.0882 H   0  0  0  0  0  0  0  0  0  0  0  0
   33.4533   38.4389   56.7959 H   0  0  0  0  0  0  0  0  0  0  0  0
   33.1027   36.1121   56.0706 H   0  0  0  0  0  0  0  0  0  0  0  0
   32.1694   34.4605   57.6404 H   0  0  0  0  0  0  0  0  0  0  0  0
   31.5776   35.1380   59.9324 H   0  0  0  0  0  0  0  0  0  0  0  0
   29.3641   35.5847   62.9938 H   0  0  0  0  0  0  0  0  0  0  0  0
   29.7313   36.0954   65.3112 H   0  0  0  0  0  0  0  0  0  0  0  0
   29.0043   37.7230   65.2753 H   0  0  0  0  0  0  0  0  0  0  0  0
  1  2  2  0  0  0  0
  2  3  1  0  0  0  0
  2  9  1  0  0  0  0
  3  8  1  0  0  0  0
  3  4  1  0  0  0  0
  3 26  1  0  0  0  0
  4  5  1  0  0  0  0
  4 27  1  0  0  0  0
  4 28  1  0  0  0  0
  5  6  1  0  0  0  0
  5 29  1  0  0  0  0
  5 30  1  0  0  0  0
  6  7  1  0  0  0  0
  6 31  1  0  0  0  0
  6 32  1  0  0  0  0
  7  8  1  0  0  0  0
  7 33  1  0  0  0  0
  7 34  1  0  0  0  0
  8 35  1  0  0  0  0
  8 36  1  0  0  0  0
  9 25  1  0  0  0  0
  9 10  1  0  0  0  0
 10 11  1  0  0  0  0
 10 37  1  0  0  0  0
 10 38  1  0  0  0  0
 11 12  2  0  0  0  0
 11 13  1  0  0  0  0
 13 14  1  0  0  0  0
 13 22  1  0  0  0  0
 14 15  1  0  0  0  0
 14 39  1  0  0  0  0
 14 40  1  0  0  0  0
 15 16  1  0  0  0  0
 15 41  1  0  0  0  0
 15 42  1  0  0  0  0
 16 21  2  0  0  0  0
 16 17  1  0  0  0  0
 17 18  2  0  0  0  0
 17 43  1  0  0  0  0
 18 19  1  0  0  0  0
 18 44  1  0  0  0  0
 19 20  2  0  0  0  0
 19 45  1  0  0  0  0
 20 21  1  0  0  0  0
 20 46  1  0  0  0  0
 21 47  1  0  0  0  0
 22 23  1  6  0  0  0
 22 24  1  0  0  0  0
 22 25  1  0  0  0  0
 24 48  1  0  0  0  0
 25 49  1  0  0  0  0
 25 50  1  0  0  0  0
M  END
$$$$
