ZINC000000000274      none
 OpenBabel11202420153D

 29 29  0  0  1  0  0  0  0  0999 V2000
   32.2422   35.7516   52.0155 C   0  0  0  0  0  0  0  0  0  0  0  0
   32.4065   35.1517   53.4134 C   0  0  0  0  0  0  0  0  0  0  0  0
   33.8700   35.2610   53.8463 C   0  0  2  0  0  0  0  0  0  0  0  0
   34.4991   34.7174   53.1414 H   0  0  0  0  0  0  0  0  0  0  0  0
   34.0320   34.6703   55.2232 C   0  0  0  0  0  0  0  0  0  0  0  0
   35.0831   34.1580   55.5432 O   0  0  0  0  0  0  0  0  0  0  0  0
   33.0083   34.7117   56.0989 N   0  0  0  0  0  0  0  0  0  0  0  0
   33.1532   34.1835   57.3304 C   0  0  0  0  0  0  0  0  0  0  0  0
   32.1313   34.2297   58.2079 N   0  0  0  0  0  0  0  0  0  0  0  0
   34.2070   33.6699   57.6512 O   0  0  0  0  0  0  0  0  0  0  0  0
   34.2797   36.7110   53.8704 C   0  0  0  0  0  0  0  0  0  0  0  0
   34.8169   37.2964   52.7393 C   0  0  0  0  0  0  0  0  0  0  0  0
   35.1885   38.6276   52.7600 C   0  0  0  0  0  0  0  0  0  0  0  0
   35.0314   39.3712   53.9147 C   0  0  0  0  0  0  0  0  0  0  0  0
   34.4991   38.7844   55.0475 C   0  0  0  0  0  0  0  0  0  0  0  0
   34.1233   37.4544   55.0254 C   0  0  0  0  0  0  0  0  0  0  0  0
   32.5386   36.8004   52.0330 H   0  0  0  0  0  0  0  0  0  0  0  0
   32.8712   35.2080   51.3106 H   0  0  0  0  0  0  0  0  0  0  0  0
   31.1996   35.6738   51.7070 H   0  0  0  0  0  0  0  0  0  0  0  0
   32.1102   34.1030   53.3958 H   0  0  0  0  0  0  0  0  0  0  0  0
   31.7775   35.6953   54.1183 H   0  0  0  0  0  0  0  0  0  0  0  0
   32.1673   35.1217   55.8429 H   0  0  0  0  0  0  0  0  0  0  0  0
   31.2916   34.6432   57.9532 H   0  0  0  0  0  0  0  0  0  0  0  0
   32.2355   33.8496   59.0942 H   0  0  0  0  0  0  0  0  0  0  0  0
   34.9432   36.7145   51.8382 H   0  0  0  0  0  0  0  0  0  0  0  0
   35.6042   39.0862   51.8749 H   0  0  0  0  0  0  0  0  0  0  0  0
   35.3243   40.4106   53.9317 H   0  0  0  0  0  0  0  0  0  0  0  0
   34.3763   39.3654   55.9497 H   0  0  0  0  0  0  0  0  0  0  0  0
   33.7073   36.9959   55.9104 H   0  0  0  0  0  0  0  0  0  0  0  0
  1  2  1  0  0  0  0
  1 17  1  0  0  0  0
  1 18  1  0  0  0  0
  1 19  1  0  0  0  0
  2  3  1  0  0  0  0
  2 20  1  0  0  0  0
  2 21  1  0  0  0  0
  3  4  1  6  0  0  0
  3  5  1  0  0  0  0
  3 11  1  0  0  0  0
  5  6  2  0  0  0  0
  5  7  1  0  0  0  0
  7  8  1  0  0  0  0
  7 22  1  0  0  0  0
  8  9  1  0  0  0  0
  8 10  2  0  0  0  0
  9 23  1  0  0  0  0
  9 24  1  0  0  0  0
 11 16  2  0  0  0  0
 11 12  1  0  0  0  0
 12 13  2  0  0  0  0
 12 25  1  0  0  0  0
 13 14  1  0  0  0  0
 13 26  1  0  0  0  0
 14 15  2  0  0  0  0
 14 27  1  0  0  0  0
 15 16  1  0  0  0  0
 15 28  1  0  0  0  0
 16 29  1  0  0  0  0
M  END
$$$$
