ZINC000000056721      none
 OpenBabel11202420153D

 26 27  0  0  0  0  0  0  0  0999 V2000
   34.6505   37.2192   53.3935 C   0  0  0  0  0  0  0  0  0  0  0  0
   34.0597   37.1428   54.8028 C   0  0  0  0  0  0  0  0  0  0  0  0
   34.1228   38.4320   55.4163 O   0  0  0  0  0  0  0  0  0  0  0  0
   33.6351   38.5382   56.6809 C   0  0  0  0  0  0  0  0  0  0  0  0
   33.6652   39.7647   57.3394 C   0  0  0  0  0  0  0  0  0  0  0  0
   33.1812   39.8861   58.6050 C   0  0  0  0  0  0  0  0  0  0  0  0
   32.6374   38.7701   59.2773 C   0  0  0  0  0  0  0  0  0  0  0  0
   32.1175   38.7027   60.5187 N   0  0  0  0  0  0  0  0  0  0  0  0
   31.6775   37.5722   60.9278 C   0  0  0  0  0  0  0  0  0  0  0  0
   30.9585   37.2867   62.5109 S   0  0  0  0  0  0  0  0  0  0  0  0
   30.5450   35.6847   62.5796 N   0  0  0  0  0  0  0  0  0  0  0  0
   31.9967   37.4743   63.4628 O   0  0  0  0  0  0  0  0  0  0  0  0
   29.7399   38.0171   62.5359 O   0  0  0  0  0  0  0  0  0  0  0  0
   31.8848   36.3464   59.6845 S   0  0  0  0  0  0  0  0  0  0  0  0
   32.6097   37.5408   58.6113 C   0  0  0  0  0  0  0  0  0  0  0  0
   33.1093   37.4300   57.3148 C   0  0  0  0  0  0  0  0  0  0  0  0
   34.0804   37.9329   52.7988 H   0  0  0  0  0  0  0  0  0  0  0  0
   35.6896   37.5432   53.4522 H   0  0  0  0  0  0  0  0  0  0  0  0
   34.6023   36.2360   52.9255 H   0  0  0  0  0  0  0  0  0  0  0  0
   34.6298   36.4292   55.3975 H   0  0  0  0  0  0  0  0  0  0  0  0
   33.0207   36.8189   54.7441 H   0  0  0  0  0  0  0  0  0  0  0  0
   34.0776   40.6289   56.8401 H   0  0  0  0  0  0  0  0  0  0  0  0
   33.2129   40.8455   59.1000 H   0  0  0  0  0  0  0  0  0  0  0  0
   30.5487   35.2189   63.4305 H   0  0  0  0  0  0  0  0  0  0  0  0
   30.2991   35.2120   61.7690 H   0  0  0  0  0  0  0  0  0  0  0  0
   33.0852   36.4776   56.8062 H   0  0  0  0  0  0  0  0  0  0  0  0
  1  2  1  0  0  0  0
  1 17  1  0  0  0  0
  1 18  1  0  0  0  0
  1 19  1  0  0  0  0
  2  3  1  0  0  0  0
  2 20  1  0  0  0  0
  2 21  1  0  0  0  0
  3  4  1  0  0  0  0
  4 16  2  0  0  0  0
  4  5  1  0  0  0  0
  5  6  2  0  0  0  0
  5 22  1  0  0  0  0
  6  7  1  0  0  0  0
  6 23  1  0  0  0  0
  7 15  2  0  0  0  0
  7  8  1  0  0  0  0
  8  9  2  0  0  0  0
  9 10  1  0  0  0  0
  9 14  1  0  0  0  0
 10 11  1  0  0  0  0
 10 12  2  0  0  0  0
 10 13  2  0  0  0  0
 11 24  1  0  0  0  0
 11 25  1  0  0  0  0
 14 15  1  0  0  0  0
 15 16  1  0  0  0  0
 16 26  1  0  0  0  0
M  END
$$$$
