ZINC000000052809      none
 OpenBabel11202420153D

 31 33  0  0  0  0  0  0  0  0999 V2000
   32.5412   35.7391   54.2795 C   0  0  0  0  0  0  0  0  0  0  0  0
   33.5851   36.7441   53.8654 C   0  0  0  0  0  0  0  0  0  0  0  0
   34.0399   36.7725   52.5621 C   0  0  0  0  0  0  0  0  0  0  0  0
   33.4087   35.6482   51.3995 Cl  0  0  0  0  0  0  0  0  0  0  0  0
   35.0024   37.6925   52.1817 C   0  0  0  0  0  0  0  0  0  0  0  0
   35.5115   38.5914   53.1024 C   0  0  0  0  0  0  0  0  0  0  0  0
   35.0626   38.5768   54.4065 C   0  0  0  0  0  0  0  0  0  0  0  0
   34.0914   37.6520   54.7976 C   0  0  0  0  0  0  0  0  0  0  0  0
   33.6069   37.6306   56.1922 C   0  0  0  0  0  0  0  0  0  0  0  0
   33.5315   38.7085   57.0245 C   0  0  0  0  0  0  0  0  0  0  0  0
   33.0155   38.2518   58.2437 C   0  0  0  0  0  0  0  0  0  0  0  0
   32.8048   36.8973   58.1036 C   0  0  0  0  0  0  0  0  0  0  0  0
   32.2750   35.9993   59.1307 C   0  0  0  0  0  0  0  0  0  0  0  0
   31.9564   36.4673   60.3033 N   0  0  0  0  0  0  0  0  0  0  0  0
   31.4493   35.6077   61.2865 N   0  0  0  0  0  0  0  0  0  0  0  0
   30.5792   35.9250   62.2868 C   0  0  0  0  0  0  0  0  0  0  0  0
   30.3642   34.8340   62.9724 N   0  0  0  0  0  0  0  0  0  0  0  0
   31.0422   33.8627   62.4728 N   0  0  0  0  0  0  0  0  0  0  0  0
   31.7260   34.2820   61.4420 C   0  0  0  0  0  0  0  0  0  0  0  0
   33.1664   36.5442   56.8531 O   0  0  0  0  0  0  0  0  0  0  0  0
   31.5486   36.1644   54.1318 H   0  0  0  0  0  0  0  0  0  0  0  0
   32.6442   34.8382   53.6748 H   0  0  0  0  0  0  0  0  0  0  0  0
   32.6759   35.4879   55.3316 H   0  0  0  0  0  0  0  0  0  0  0  0
   35.3579   37.7082   51.1620 H   0  0  0  0  0  0  0  0  0  0  0  0
   36.2622   39.3060   52.7992 H   0  0  0  0  0  0  0  0  0  0  0  0
   35.4615   39.2787   55.1239 H   0  0  0  0  0  0  0  0  0  0  0  0
   33.8122   39.7239   56.7865 H   0  0  0  0  0  0  0  0  0  0  0  0
   32.8226   38.8460   59.1246 H   0  0  0  0  0  0  0  0  0  0  0  0
   32.1484   34.9485   58.9161 H   0  0  0  0  0  0  0  0  0  0  0  0
   30.1450   36.8957   62.4746 H   0  0  0  0  0  0  0  0  0  0  0  0
   32.3843   33.6881   60.8251 H   0  0  0  0  0  0  0  0  0  0  0  0
  1  2  1  0  0  0  0
  1 21  1  0  0  0  0
  1 22  1  0  0  0  0
  1 23  1  0  0  0  0
  2  8  2  0  0  0  0
  2  3  1  0  0  0  0
  3  4  1  0  0  0  0
  3  5  2  0  0  0  0
  5  6  1  0  0  0  0
  5 24  1  0  0  0  0
  6  7  2  0  0  0  0
  6 25  1  0  0  0  0
  7  8  1  0  0  0  0
  7 26  1  0  0  0  0
  8  9  1  0  0  0  0
  9 20  1  0  0  0  0
  9 10  2  0  0  0  0
 10 11  1  0  0  0  0
 10 27  1  0  0  0  0
 11 12  2  0  0  0  0
 11 28  1  0  0  0  0
 12 13  1  0  0  0  0
 12 20  1  0  0  0  0
 13 14  2  0  0  0  0
 13 29  1  0  0  0  0
 14 15  1  0  0  0  0
 15 19  1  0  0  0  0
 15 16  1  0  0  0  0
 16 17  2  0  0  0  0
 16 30  1  0  0  0  0
 17 18  1  0  0  0  0
 18 19  2  0  0  0  0
 19 31  1  0  0  0  0
M  END
$$$$
