ZINC000000038301      none
 OpenBabel11202420153D

 37 40  0  0  0  0  0  0  0  0999 V2000
   31.0667   40.1755   65.9733 C   0  0  0  0  0  0  0  0  0  0  0  0
   30.2632   39.6141   64.8285 C   0  0  0  0  0  0  0  0  0  0  0  0
   30.7286   38.8554   63.8101 C   0  0  0  0  0  0  0  0  0  0  0  0
   29.5766   38.5988   63.0202 C   0  0  0  0  0  0  0  0  0  0  0  0
   29.5176   37.8529   61.8427 N   0  0  0  0  0  0  0  0  0  0  0  0
   30.6348   37.2829   61.3494 C   0  0  0  0  0  0  0  0  0  0  0  0
   31.6914   37.4183   61.9293 O   0  0  0  0  0  0  0  0  0  0  0  0
   30.5713   36.4773   60.0775 C   0  0  0  0  0  0  0  0  0  0  0  0
   32.2209   35.8482   59.6786 S   0  0  0  0  0  0  0  0  0  0  0  0
   32.8229   37.1747   58.6875 C   0  0  0  0  0  0  0  0  0  0  0  0
   32.9229   38.3996   59.1860 N   0  0  0  0  0  0  0  0  0  0  0  0
   33.3732   39.4007   58.4518 C   0  0  0  0  0  0  0  0  0  0  0  0
   33.7431   39.2429   57.2018 N   0  0  0  0  0  0  0  0  0  0  0  0
   33.6776   38.0408   56.6107 C   0  0  0  0  0  0  0  0  0  0  0  0
   34.0916   37.5256   54.9861 S   0  0  0  0  0  0  0  0  0  0  0  0
   33.6300   35.8562   55.3164 C   0  0  0  0  0  0  0  0  0  0  0  0
   33.1979   35.7123   56.5612 C   0  0  0  0  0  0  0  0  0  0  0  0
   33.2159   36.9519   57.3421 C   0  0  0  0  0  0  0  0  0  0  0  0
   32.8052   34.2574   56.8186 C   0  0  0  0  0  0  0  0  0  0  0  0
   33.4817   33.4582   55.6876 C   0  0  0  0  0  0  0  0  0  0  0  0
   33.5847   34.5222   54.5768 C   0  0  0  0  0  0  0  0  0  0  0  0
   28.5836   39.2063   63.6148 N   0  0  0  0  0  0  0  0  0  0  0  0
   28.9477   39.7689   64.6212 O   0  0  0  0  0  0  0  0  0  0  0  0
   31.4471   41.1603   65.7017 H   0  0  0  0  0  0  0  0  0  0  0  0
   30.4317   40.2618   66.8549 H   0  0  0  0  0  0  0  0  0  0  0  0
   31.9026   39.5106   66.1910 H   0  0  0  0  0  0  0  0  0  0  0  0
   31.7413   38.5224   63.6374 H   0  0  0  0  0  0  0  0  0  0  0  0
   28.6725   37.7446   61.3790 H   0  0  0  0  0  0  0  0  0  0  0  0
   30.2172   37.1103   59.2639 H   0  0  0  0  0  0  0  0  0  0  0  0
   29.8858   35.6405   60.2112 H   0  0  0  0  0  0  0  0  0  0  0  0
   33.4394   40.3834   58.8948 H   0  0  0  0  0  0  0  0  0  0  0  0
   33.1777   33.9303   57.7892 H   0  0  0  0  0  0  0  0  0  0  0  0
   31.7223   34.1429   56.7706 H   0  0  0  0  0  0  0  0  0  0  0  0
   34.4701   33.1125   55.9905 H   0  0  0  0  0  0  0  0  0  0  0  0
   32.8574   32.6223   55.3723 H   0  0  0  0  0  0  0  0  0  0  0  0
   34.4967   34.3785   53.9973 H   0  0  0  0  0  0  0  0  0  0  0  0
   32.7115   34.4768   53.9259 H   0  0  0  0  0  0  0  0  0  0  0  0
  1  2  1  0  0  0  0
  1 24  1  0  0  0  0
  1 25  1  0  0  0  0
  1 26  1  0  0  0  0
  2 23  1  0  0  0  0
  2  3  2  0  0  0  0
  3  4  1  0  0  0  0
  3 27  1  0  0  0  0
  4  5  1  0  0  0  0
  4 22  2  0  0  0  0
  5  6  1  0  0  0  0
  5 28  1  0  0  0  0
  6  7  2  0  0  0  0
  6  8  1  0  0  0  0
  8  9  1  0  0  0  0
  8 29  1  0  0  0  0
  8 30  1  0  0  0  0
  9 10  1  0  0  0  0
 10 18  2  0  0  0  0
 10 11  1  0  0  0  0
 11 12  2  0  0  0  0
 12 13  1  0  0  0  0
 12 31  1  0  0  0  0
 13 14  2  0  0  0  0
 14 18  1  0  0  0  0
 14 15  1  0  0  0  0
 15 16  1  0  0  0  0
 16 21  1  0  0  0  0
 16 17  2  0  0  0  0
 17 18  1  0  0  0  0
 17 19  1  0  0  0  0
 19 20  1  0  0  0  0
 19 32  1  0  0  0  0
 19 33  1  0  0  0  0
 20 21  1  0  0  0  0
 20 34  1  0  0  0  0
 20 35  1  0  0  0  0
 21 36  1  0  0  0  0
 21 37  1  0  0  0  0
 22 23  1  0  0  0  0
M  END
$$$$
