ZINC000000020253      none
 OpenBabel11202420153D

 33 35  0  0  1  0  0  0  0  0999 V2000
   31.5384   34.1221   68.6680 N   0  0  0  0  0  0  0  0  0  0  0  0
   30.8368   35.5052   68.0872 S   0  0  0  0  0  0  0  0  0  0  0  0
   31.3009   36.5666   68.9100 O   0  0  0  0  0  0  0  0  0  0  0  0
   29.4592   35.2096   67.9034 O   0  0  0  0  0  0  0  0  0  0  0  0
   31.5025   35.7929   66.4814 C   0  0  0  0  0  0  0  0  0  0  0  0
   30.8817   35.2556   65.3691 C   0  0  0  0  0  0  0  0  0  0  0  0
   31.4041   35.4809   64.1095 C   0  0  0  0  0  0  0  0  0  0  0  0
   30.7269   34.8948   62.8974 C   0  0  2  0  0  0  0  0  0  0  0  0
   29.3274   34.7423   63.1431 O   0  0  0  0  0  0  0  0  0  0  0  0
   31.3246   33.5969   62.5641 N   0  0  0  0  0  0  0  0  0  0  0  0
   31.8482   33.6670   61.3280 C   0  0  0  0  0  0  0  0  0  0  0  0
   32.4164   32.7539   60.7615 O   0  0  0  0  0  0  0  0  0  0  0  0
   31.6351   35.0108   60.7576 C   0  0  0  0  0  0  0  0  0  0  0  0
   31.9829   35.5773   59.5297 C   0  0  0  0  0  0  0  0  0  0  0  0
   31.6483   36.8880   59.2595 C   0  0  0  0  0  0  0  0  0  0  0  0
   30.9693   37.6436   60.1991 C   0  0  0  0  0  0  0  0  0  0  0  0
   30.6209   37.0888   61.4190 C   0  0  0  0  0  0  0  0  0  0  0  0
   30.9503   35.7827   61.6989 C   0  0  0  0  0  0  0  0  0  0  0  0
   32.5473   36.2441   63.9608 C   0  0  0  0  0  0  0  0  0  0  0  0
   33.1688   36.7818   65.0719 C   0  0  0  0  0  0  0  0  0  0  0  0
   32.6465   36.5562   66.3334 C   0  0  0  0  0  0  0  0  0  0  0  0
   33.4269   37.2317   67.7292 Cl  0  0  0  0  0  0  0  0  0  0  0  0
   32.1865   33.6432   68.1280 H   0  0  0  0  0  0  0  0  0  0  0  0
   31.3013   33.7908   69.5483 H   0  0  0  0  0  0  0  0  0  0  0  0
   29.9883   34.6600   65.4846 H   0  0  0  0  0  0  0  0  0  0  0  0
   29.1201   34.1701   63.8944 H   0  0  0  0  0  0  0  0  0  0  0  0
   31.3398   32.8170   63.1407 H   0  0  0  0  0  0  0  0  0  0  0  0
   32.5122   34.9908   58.7935 H   0  0  0  0  0  0  0  0  0  0  0  0
   31.9173   37.3263   58.3098 H   0  0  0  0  0  0  0  0  0  0  0  0
   30.7106   38.6692   59.9804 H   0  0  0  0  0  0  0  0  0  0  0  0
   30.0914   37.6812   62.1505 H   0  0  0  0  0  0  0  0  0  0  0  0
   32.9573   36.4164   62.9766 H   0  0  0  0  0  0  0  0  0  0  0  0
   34.0620   37.3777   64.9557 H   0  0  0  0  0  0  0  0  0  0  0  0
  1  2  1  0  0  0  0
  1 23  1  0  0  0  0
  1 24  1  0  0  0  0
  2  3  2  0  0  0  0
  2  4  2  0  0  0  0
  2  5  1  0  0  0  0
  5 21  2  0  0  0  0
  5  6  1  0  0  0  0
  6  7  2  0  0  0  0
  6 25  1  0  0  0  0
  7  8  1  0  0  0  0
  7 19  1  0  0  0  0
  8 18  1  0  0  0  0
  8  9  1  1  0  0  0
  8 10  1  0  0  0  0
  9 26  1  0  0  0  0
 10 11  1  0  0  0  0
 10 27  1  0  0  0  0
 11 12  2  0  0  0  0
 11 13  1  0  0  0  0
 13 18  2  0  0  0  0
 13 14  1  0  0  0  0
 14 15  2  0  0  0  0
 14 28  1  0  0  0  0
 15 16  1  0  0  0  0
 15 29  1  0  0  0  0
 16 17  2  0  0  0  0
 16 30  1  0  0  0  0
 17 18  1  0  0  0  0
 17 31  1  0  0  0  0
 19 20  2  0  0  0  0
 19 32  1  0  0  0  0
 20 21  1  0  0  0  0
 20 33  1  0  0  0  0
 21 22  1  0  0  0  0
M  END
$$$$
