ZINC000000009032      none
 OpenBabel11202420153D

 42 44  0  0  1  0  0  0  0  0999 V2000
   32.6179   37.1841   61.2800 C   0  0  0  0  0  0  0  0  0  0  0  0
   31.3817   37.8405   61.8979 C   0  0  2  0  0  0  0  0  0  0  0  0
   31.4969   38.9239   61.9301 H   0  0  0  0  0  0  0  0  0  0  0  0
   31.1110   37.2872   63.2843 C   0  0  0  0  0  0  0  0  0  0  0  0
   31.8274   37.6452   64.5200 C   0  0  0  0  0  0  0  0  0  0  0  0
   32.5009   36.6626   65.2515 C   0  0  0  0  0  0  0  0  0  0  0  0
   33.1740   37.0067   66.4049 C   0  0  0  0  0  0  0  0  0  0  0  0
   33.1747   38.3188   66.8446 C   0  0  0  0  0  0  0  0  0  0  0  0
   32.5056   39.2962   66.1289 C   0  0  0  0  0  0  0  0  0  0  0  0
   31.8329   38.9688   64.9705 C   0  0  0  0  0  0  0  0  0  0  0  0
   30.0947   36.4075   63.1779 C   0  0  0  0  0  0  0  0  0  0  0  0
   29.5214   35.6601   64.3153 C   0  0  0  0  0  0  0  0  0  0  0  0
   29.5390   34.2637   64.3172 C   0  0  0  0  0  0  0  0  0  0  0  0
   29.0064   33.5720   65.3853 C   0  0  0  0  0  0  0  0  0  0  0  0
   28.4464   34.2585   66.4483 C   0  0  0  0  0  0  0  0  0  0  0  0
   27.7625   33.3667   67.8053 S   0  0  0  0  0  0  0  0  0  0  0  0
   29.1480   33.1649   68.9586 C   0  0  0  0  0  0  0  0  0  0  0  0
   26.7870   34.2465   68.3470 O   0  0  0  0  0  0  0  0  0  0  0  0
   27.3903   32.1133   67.2490 O   0  0  0  0  0  0  0  0  0  0  0  0
   28.4206   35.6419   66.4503 C   0  0  0  0  0  0  0  0  0  0  0  0
   28.9544   36.3463   65.3912 C   0  0  0  0  0  0  0  0  0  0  0  0
   29.6647   36.2938   61.8970 O   0  0  0  0  0  0  0  0  0  0  0  0
   30.1559   37.4638   61.1482 N   0  0  0  0  0  0  0  0  0  0  0  0
   30.4772   37.1039   59.7607 C   0  0  0  0  0  0  0  0  0  0  0  0
   32.7637   37.5637   60.2687 H   0  0  0  0  0  0  0  0  0  0  0  0
   33.4940   37.4173   61.8853 H   0  0  0  0  0  0  0  0  0  0  0  0
   32.4771   36.1038   61.2459 H   0  0  0  0  0  0  0  0  0  0  0  0
   32.4973   35.6374   64.9120 H   0  0  0  0  0  0  0  0  0  0  0  0
   33.6987   36.2494   66.9686 H   0  0  0  0  0  0  0  0  0  0  0  0
   33.7004   38.5815   67.7506 H   0  0  0  0  0  0  0  0  0  0  0  0
   32.5107   40.3182   66.4782 H   0  0  0  0  0  0  0  0  0  0  0  0
   31.3117   39.7327   64.4127 H   0  0  0  0  0  0  0  0  0  0  0  0
   29.9717   33.7266   63.4861 H   0  0  0  0  0  0  0  0  0  0  0  0
   29.0228   32.4922   65.3899 H   0  0  0  0  0  0  0  0  0  0  0  0
   29.5157   34.1458   69.2602 H   0  0  0  0  0  0  0  0  0  0  0  0
   28.8114   32.6168   69.8387 H   0  0  0  0  0  0  0  0  0  0  0  0
   29.9497   32.6109   68.4702 H   0  0  0  0  0  0  0  0  0  0  0  0
   27.9814   36.1715   67.2829 H   0  0  0  0  0  0  0  0  0  0  0  0
   28.9338   37.4262   65.3942 H   0  0  0  0  0  0  0  0  0  0  0  0
   31.1643   36.2579   59.7546 H   0  0  0  0  0  0  0  0  0  0  0  0
   29.5619   36.8325   59.2345 H   0  0  0  0  0  0  0  0  0  0  0  0
   30.9434   37.9544   59.2634 H   0  0  0  0  0  0  0  0  0  0  0  0
  1  2  1  0  0  0  0
  1 25  1  0  0  0  0
  1 26  1  0  0  0  0
  1 27  1  0  0  0  0
  2  3  1  1  0  0  0
  2 23  1  0  0  0  0
  2  4  1  0  0  0  0
  4  5  1  0  0  0  0
  4 11  2  0  0  0  0
  5 10  2  0  0  0  0
  5  6  1  0  0  0  0
  6  7  2  0  0  0  0
  6 28  1  0  0  0  0
  7  8  1  0  0  0  0
  7 29  1  0  0  0  0
  8  9  2  0  0  0  0
  8 30  1  0  0  0  0
  9 10  1  0  0  0  0
  9 31  1  0  0  0  0
 10 32  1  0  0  0  0
 11 12  1  0  0  0  0
 11 22  1  0  0  0  0
 12 21  2  0  0  0  0
 12 13  1  0  0  0  0
 13 14  2  0  0  0  0
 13 33  1  0  0  0  0
 14 15  1  0  0  0  0
 14 34  1  0  0  0  0
 15 16  1  0  0  0  0
 15 20  2  0  0  0  0
 16 17  1  0  0  0  0
 16 18  2  0  0  0  0
 16 19  2  0  0  0  0
 17 35  1  0  0  0  0
 17 36  1  0  0  0  0
 17 37  1  0  0  0  0
 20 21  1  0  0  0  0
 20 38  1  0  0  0  0
 21 39  1  0  0  0  0
 22 23  1  0  0  0  0
 23 24  1  0  0  0  0
 24 40  1  0  0  0  0
 24 41  1  0  0  0  0
 24 42  1  0  0  0  0
M  END
$$$$
