ZINC000000006676      none
 OpenBabel11202420153D

 34 35  0  0  0  0  0  0  0  0999 V2000
   30.7623   35.9957   61.4765 C   0  0  0  0  0  0  0  0  0  0  0  0
   31.7530   35.2951   60.5445 C   0  0  0  0  0  0  0  0  0  0  0  0
   32.2226   36.2645   59.4905 C   0  0  0  0  0  0  0  0  0  0  0  0
   32.2901   37.6200   59.7837 C   0  0  0  0  0  0  0  0  0  0  0  0
   32.7166   38.5131   58.8297 C   0  0  0  0  0  0  0  0  0  0  0  0
   33.0846   38.0614   57.5582 C   0  0  0  0  0  0  0  0  0  0  0  0
   33.6608   38.9472   56.1521 S   0  0  0  0  0  0  0  0  0  0  0  0
   33.8043   37.4804   55.2029 C   0  0  0  0  0  0  0  0  0  0  0  0
   33.4382   36.4209   55.8965 C   0  0  0  0  0  0  0  0  0  0  0  0
   33.4601   35.0281   55.3215 C   0  0  0  0  0  0  0  0  0  0  0  0
   34.7724   34.8085   54.5664 C   0  0  0  0  0  0  0  0  0  0  0  0
   34.7938   33.4545   54.0074 N   0  0  0  0  0  0  0  0  0  0  0  0
   35.3005   32.4353   54.7292 C   0  0  0  0  0  0  0  0  0  0  0  0
   35.3224   31.0425   54.1542 C   0  0  0  0  0  0  0  0  0  0  0  0
   35.7388   32.6391   55.8416 O   0  0  0  0  0  0  0  0  0  0  0  0
   33.0177   36.6977   57.2605 C   0  0  0  0  0  0  0  0  0  0  0  0
   32.5760   35.8036   58.2597 C   0  0  0  0  0  0  0  0  0  0  0  0
   29.9071   36.3475   60.8995 H   0  0  0  0  0  0  0  0  0  0  0  0
   30.4227   35.2945   62.2388 H   0  0  0  0  0  0  0  0  0  0  0  0
   31.2515   36.8440   61.9553 H   0  0  0  0  0  0  0  0  0  0  0  0
   31.2639   34.4468   60.0658 H   0  0  0  0  0  0  0  0  0  0  0  0
   32.6082   34.9433   61.1216 H   0  0  0  0  0  0  0  0  0  0  0  0
   32.0070   37.9736   60.7641 H   0  0  0  0  0  0  0  0  0  0  0  0
   32.7674   39.5665   59.0625 H   0  0  0  0  0  0  0  0  0  0  0  0
   34.1473   37.4490   54.1794 H   0  0  0  0  0  0  0  0  0  0  0  0
   33.3794   34.3004   56.1290 H   0  0  0  0  0  0  0  0  0  0  0  0
   32.6215   34.9047   54.6361 H   0  0  0  0  0  0  0  0  0  0  0  0
   34.8532   35.5363   53.7590 H   0  0  0  0  0  0  0  0  0  0  0  0
   35.6110   34.9319   55.2518 H   0  0  0  0  0  0  0  0  0  0  0  0
   34.4431   33.2916   53.1178 H   0  0  0  0  0  0  0  0  0  0  0  0
   36.2574   30.8862   53.6163 H   0  0  0  0  0  0  0  0  0  0  0  0
   35.2417   30.3148   54.9617 H   0  0  0  0  0  0  0  0  0  0  0  0
   34.4839   30.9193   53.4688 H   0  0  0  0  0  0  0  0  0  0  0  0
   32.5184   34.7465   58.0461 H   0  0  0  0  0  0  0  0  0  0  0  0
  1  2  1  0  0  0  0
  1 18  1  0  0  0  0
  1 19  1  0  0  0  0
  1 20  1  0  0  0  0
  2  3  1  0  0  0  0
  2 21  1  0  0  0  0
  2 22  1  0  0  0  0
  3 17  2  0  0  0  0
  3  4  1  0  0  0  0
  4  5  2  0  0  0  0
  4 23  1  0  0  0  0
  5  6  1  0  0  0  0
  5 24  1  0  0  0  0
  6 16  2  0  0  0  0
  6  7  1  0  0  0  0
  7  8  1  0  0  0  0
  8  9  2  0  0  0  0
  8 25  1  0  0  0  0
  9 10  1  0  0  0  0
  9 16  1  0  0  0  0
 10 11  1  0  0  0  0
 10 26  1  0  0  0  0
 10 27  1  0  0  0  0
 11 12  1  0  0  0  0
 11 28  1  0  0  0  0
 11 29  1  0  0  0  0
 12 13  1  0  0  0  0
 12 30  1  0  0  0  0
 13 14  1  0  0  0  0
 13 15  2  0  0  0  0
 14 31  1  0  0  0  0
 14 32  1  0  0  0  0
 14 33  1  0  0  0  0
 16 17  1  0  0  0  0
 17 34  1  0  0  0  0
M  END
$$$$
