ZINC000000005437      none
 OpenBabel11202420153D

 34 37  0  0  1  0  0  0  0  0999 V2000
   29.4629   36.5017   60.1146 C   0  0  0  0  0  0  0  0  0  0  0  0
   30.3313   36.7936   61.3400 C   0  0  1  0  0  0  0  0  0  0  0  0
   30.3789   37.8704   61.5025 H   0  0  0  0  0  0  0  0  0  0  0  0
   29.7185   36.1196   62.5694 C   0  0  0  0  0  0  0  0  0  0  0  0
   30.7229   36.1363   63.6950 C   0  0  0  0  0  0  0  0  0  0  0  0
   30.3521   36.2796   64.8412 O   0  0  0  0  0  0  0  0  0  0  0  0
   32.0330   35.9907   63.4203 N   0  0  0  0  0  0  0  0  0  0  0  0
   32.4747   35.9076   62.0972 N   0  0  0  0  0  0  0  0  0  0  0  0
   31.7203   36.2601   61.1084 C   0  0  0  0  0  0  0  0  0  0  0  0
   32.2262   36.1318   59.7302 C   0  0  0  0  0  0  0  0  0  0  0  0
   32.3250   37.2610   58.9133 C   0  0  0  0  0  0  0  0  0  0  0  0
   32.7944   37.1347   57.6234 C   0  0  0  0  0  0  0  0  0  0  0  0
   33.1789   35.8912   57.1369 C   0  0  0  0  0  0  0  0  0  0  0  0
   33.0828   34.7585   57.9436 C   0  0  0  0  0  0  0  0  0  0  0  0
   32.6072   34.8809   59.2386 C   0  0  0  0  0  0  0  0  0  0  0  0
   33.4410   33.5174   57.5014 O   0  0  0  0  0  0  0  0  0  0  0  0
   34.1265   33.4466   56.3268 C   0  0  0  0  0  0  0  0  0  0  0  0
   34.7774   32.4206   55.7556 C   0  0  0  0  0  0  0  0  0  0  0  0
   35.2955   32.8666   54.5750 N   0  0  0  0  0  0  0  0  0  0  0  0
   35.8167   32.3423   53.9468 H   0  0  0  0  0  0  0  0  0  0  0  0
   34.9424   34.2184   54.4288 N   0  0  0  0  0  0  0  0  0  0  0  0
   34.2494   34.5685   55.4672 C   0  0  0  0  0  0  0  0  0  0  0  0
   33.6623   35.7986   55.8168 N   0  0  0  0  0  0  0  0  0  0  0  0
   29.5358   35.4440   59.8612 H   0  0  0  0  0  0  0  0  0  0  0  0
   28.4254   36.7514   60.3366 H   0  0  0  0  0  0  0  0  0  0  0  0
   29.8089   37.1015   59.2728 H   0  0  0  0  0  0  0  0  0  0  0  0
   28.8222   36.6608   62.8727 H   0  0  0  0  0  0  0  0  0  0  0  0
   29.4586   35.0888   62.3282 H   0  0  0  0  0  0  0  0  0  0  0  0
   32.6741   35.9398   64.1464 H   0  0  0  0  0  0  0  0  0  0  0  0
   32.0302   38.2294   59.2899 H   0  0  0  0  0  0  0  0  0  0  0  0
   32.8669   38.0061   56.9895 H   0  0  0  0  0  0  0  0  0  0  0  0
   32.5304   34.0077   59.8695 H   0  0  0  0  0  0  0  0  0  0  0  0
   34.8732   31.4228   56.1576 H   0  0  0  0  0  0  0  0  0  0  0  0
   33.5947   36.5352   55.1894 H   0  0  0  0  0  0  0  0  0  0  0  0
  1  2  1  0  0  0  0
  1 24  1  0  0  0  0
  1 25  1  0  0  0  0
  1 26  1  0  0  0  0
  2  3  1  1  0  0  0
  2  9  1  0  0  0  0
  2  4  1  0  0  0  0
  4  5  1  0  0  0  0
  4 27  1  0  0  0  0
  4 28  1  0  0  0  0
  5  6  2  0  0  0  0
  5  7  1  0  0  0  0
  7  8  1  0  0  0  0
  7 29  1  0  0  0  0
  8  9  2  0  0  0  0
  9 10  1  0  0  0  0
 10 15  2  0  0  0  0
 10 11  1  0  0  0  0
 11 12  2  0  0  0  0
 11 30  1  0  0  0  0
 12 13  1  0  0  0  0
 12 31  1  0  0  0  0
 13 23  1  0  0  0  0
 13 14  2  0  0  0  0
 14 15  1  0  0  0  0
 14 16  1  0  0  0  0
 15 32  1  0  0  0  0
 16 17  1  0  0  0  0
 17 22  1  0  0  0  0
 17 18  2  0  0  0  0
 18 19  1  0  0  0  0
 18 33  1  0  0  0  0
 19 20  1  0  0  0  0
 19 21  1  0  0  0  0
 21 22  2  0  0  0  0
 22 23  1  0  0  0  0
 23 34  1  0  0  0  0
M  END
$$$$
