ZINC000000005108      none
 OpenBabel11202420153D

 42 45  0  0  1  0  0  0  0  0999 V2000
   33.9743   37.1354   56.2045 N   0  0  0  0  0  0  0  0  0  0  0  0
   33.2594   37.2324   57.3941 C   0  0  0  0  0  0  0  0  0  0  0  0
   33.0532   38.4810   57.9827 C   0  0  0  0  0  0  0  0  0  0  0  0
   33.6901   39.9107   57.2316 Cl  0  0  0  0  0  0  0  0  0  0  0  0
   32.3469   38.5784   59.1471 C   0  0  0  0  0  0  0  0  0  0  0  0
   31.8374   37.4319   59.7629 C   0  0  0  0  0  0  0  0  0  0  0  0
   31.0792   37.5471   61.0195 C   0  0  0  0  0  0  0  0  0  0  0  0
   30.4322   38.5510   61.2496 O   0  0  0  0  0  0  0  0  0  0  0  0
   31.1021   36.5401   61.9151 N   0  0  0  0  0  0  0  0  0  0  0  0
   30.3477   36.6547   63.1657 C   0  0  1  0  0  0  0  0  0  0  0  0
   29.2885   36.7833   62.9428 H   0  0  0  0  0  0  0  0  0  0  0  0
   30.5506   35.3869   64.0051 C   0  0  0  0  0  0  0  0  0  0  0  0
   31.1646   35.7465   65.2908 N   0  0  1  0  0  0  0  0  0  0  0  0
   32.4881   36.3526   65.0926 C   0  0  0  0  0  0  0  0  0  0  0  0
   32.3388   37.6465   64.2873 C   0  0  0  0  0  0  0  0  0  0  0  0
   30.8552   37.8627   63.9632 C   0  0  2  0  0  0  0  0  0  0  0  0
   30.0748   37.9391   65.2848 C   0  0  0  0  0  0  0  0  0  0  0  0
   30.2864   36.6369   66.0622 C   0  0  0  0  0  0  0  0  0  0  0  0
   32.0441   36.1669   59.1789 C   0  0  0  0  0  0  0  0  0  0  0  0
   32.7536   36.0901   57.9914 C   0  0  0  0  0  0  0  0  0  0  0  0
   32.8042   34.6267   57.5971 C   0  0  0  0  0  0  0  0  0  0  0  0
   31.7077   34.0151   58.5013 C   0  0  0  0  0  0  0  0  0  0  0  0
   31.6573   34.9358   59.6046 O   0  0  0  0  0  0  0  0  0  0  0  0
   34.1180   36.2682   55.7943 H   0  0  0  0  0  0  0  0  0  0  0  0
   34.3291   37.9348   55.7852 H   0  0  0  0  0  0  0  0  0  0  0  0
   32.1840   39.5466   59.5969 H   0  0  0  0  0  0  0  0  0  0  0  0
   31.6181   35.7395   61.7316 H   0  0  0  0  0  0  0  0  0  0  0  0
   31.2046   34.6985   63.4697 H   0  0  0  0  0  0  0  0  0  0  0  0
   29.5871   34.9096   64.1832 H   0  0  0  0  0  0  0  0  0  0  0  0
   33.1284   35.6577   64.5491 H   0  0  0  0  0  0  0  0  0  0  0  0
   32.9342   36.5766   66.0615 H   0  0  0  0  0  0  0  0  0  0  0  0
   32.7108   38.4866   64.8737 H   0  0  0  0  0  0  0  0  0  0  0  0
   32.9073   37.5677   63.3606 H   0  0  0  0  0  0  0  0  0  0  0  0
   30.7262   38.7833   63.3942 H   0  0  0  0  0  0  0  0  0  0  0  0
   29.0134   38.0705   65.0744 H   0  0  0  0  0  0  0  0  0  0  0  0
   30.4367   38.7803   65.8760 H   0  0  0  0  0  0  0  0  0  0  0  0
   29.3250   36.1493   66.2234 H   0  0  0  0  0  0  0  0  0  0  0  0
   30.7479   36.8587   67.0244 H   0  0  0  0  0  0  0  0  0  0  0  0
   32.5568   34.4983   56.5433 H   0  0  0  0  0  0  0  0  0  0  0  0
   33.7799   34.1960   57.8221 H   0  0  0  0  0  0  0  0  0  0  0  0
   30.7507   33.9833   57.9805 H   0  0  0  0  0  0  0  0  0  0  0  0
   31.9972   33.0205   58.8408 H   0  0  0  0  0  0  0  0  0  0  0  0
  1  2  1  0  0  0  0
  1 24  1  0  0  0  0
  1 25  1  0  0  0  0
  2 20  2  0  0  0  0
  2  3  1  0  0  0  0
  3  4  1  0  0  0  0
  3  5  2  0  0  0  0
  5  6  1  0  0  0  0
  5 26  1  0  0  0  0
  6  7  1  0  0  0  0
  6 19  2  0  0  0  0
  7  8  2  0  0  0  0
  7  9  1  0  0  0  0
  9 10  1  0  0  0  0
  9 27  1  0  0  0  0
 10 11  1  6  0  0  0
 10 16  1  0  0  0  0
 10 12  1  0  0  0  0
 12 28  1  0  0  0  0
 12 29  1  0  0  0  0
 13 12  1  6  0  0  0
 13 18  1  0  0  0  0
 13 14  1  0  0  0  0
 14 15  1  0  0  0  0
 14 30  1  0  0  0  0
 14 31  1  0  0  0  0
 15 16  1  0  0  0  0
 15 32  1  0  0  0  0
 15 33  1  0  0  0  0
 16 17  1  0  0  0  0
 16 34  1  6  0  0  0
 17 18  1  0  0  0  0
 17 35  1  0  0  0  0
 17 36  1  0  0  0  0
 18 37  1  0  0  0  0
 18 38  1  0  0  0  0
 19 23  1  0  0  0  0
 19 20  1  0  0  0  0
 20 21  1  0  0  0  0
 21 22  1  0  0  0  0
 21 39  1  0  0  0  0
 21 40  1  0  0  0  0
 22 23  1  0  0  0  0
 22 41  1  0  0  0  0
 22 42  1  0  0  0  0
M  END
$$$$
