ZINC000000011046      none
 OpenBabel11202420153D

 38 41  0  0  0  0  0  0  0  0999 V2000
   34.2318   31.9427   53.6870 C   0  0  0  0  0  0  0  0  0  0  0  0
   34.6773   31.6860   54.9701 C   0  0  0  0  0  0  0  0  0  0  0  0
   34.8685   32.6697   55.8270 N   0  0  0  0  0  0  0  0  0  0  0  0
   34.6452   33.9277   55.4999 C   0  0  0  0  0  0  0  0  0  0  0  0
   34.1982   34.2605   54.2354 C   0  0  0  0  0  0  0  0  0  0  0  0
   33.9445   35.7004   53.8704 C   0  0  0  0  0  0  0  0  0  0  0  0
   35.0290   36.5074   54.3337 O   0  0  0  0  0  0  0  0  0  0  0  0
   34.9561   37.8400   54.0842 C   0  0  0  0  0  0  0  0  0  0  0  0
   35.4867   38.3588   52.9134 C   0  0  0  0  0  0  0  0  0  0  0  0
   35.4051   39.7129   52.6567 C   0  0  0  0  0  0  0  0  0  0  0  0
   34.8081   40.5643   53.5720 C   0  0  0  0  0  0  0  0  0  0  0  0
   34.2805   40.0650   54.7442 C   0  0  0  0  0  0  0  0  0  0  0  0
   34.3499   38.6968   55.0111 C   0  0  0  0  0  0  0  0  0  0  0  0
   33.7870   38.1553   56.2654 C   0  0  0  0  0  0  0  0  0  0  0  0
   33.2915   36.9503   56.4112 N   0  0  0  0  0  0  0  0  0  0  0  0
   32.8641   36.7850   57.6868 C   0  0  0  0  0  0  0  0  0  0  0  0
   32.2679   35.7199   58.3700 C   0  0  0  0  0  0  0  0  0  0  0  0
   31.9415   35.8550   59.6895 C   0  0  0  0  0  0  0  0  0  0  0  0
   32.1950   37.0412   60.3637 C   0  0  0  0  0  0  0  0  0  0  0  0
   32.7819   38.1048   59.7108 C   0  0  0  0  0  0  0  0  0  0  0  0
   33.1209   37.9868   58.3701 C   0  0  0  0  0  0  0  0  0  0  0  0
   33.7097   38.8346   57.4516 N   0  0  0  0  0  0  0  0  0  0  0  0
   34.0097   39.7423   57.6159 H   0  0  0  0  0  0  0  0  0  0  0  0
   33.9805   33.2523   53.3084 C   0  0  0  0  0  0  0  0  0  0  0  0
   34.0767   31.1325   52.9897 H   0  0  0  0  0  0  0  0  0  0  0  0
   34.8713   30.6679   55.2742 H   0  0  0  0  0  0  0  0  0  0  0  0
   34.8132   34.7066   56.2289 H   0  0  0  0  0  0  0  0  0  0  0  0
   33.8608   35.7914   52.7874 H   0  0  0  0  0  0  0  0  0  0  0  0
   33.0176   36.0355   54.3358 H   0  0  0  0  0  0  0  0  0  0  0  0
   35.9591   37.7019   52.1979 H   0  0  0  0  0  0  0  0  0  0  0  0
   35.8176   40.1131   51.7423 H   0  0  0  0  0  0  0  0  0  0  0  0
   34.7537   41.6231   53.3661 H   0  0  0  0  0  0  0  0  0  0  0  0
   33.8140   40.7315   55.4544 H   0  0  0  0  0  0  0  0  0  0  0  0
   32.0658   34.7924   57.8550 H   0  0  0  0  0  0  0  0  0  0  0  0
   31.4817   35.0302   60.2135 H   0  0  0  0  0  0  0  0  0  0  0  0
   31.9312   37.1320   61.4070 H   0  0  0  0  0  0  0  0  0  0  0  0
   32.9772   39.0254   60.2405 H   0  0  0  0  0  0  0  0  0  0  0  0
   33.6275   33.4824   52.3141 H   0  0  0  0  0  0  0  0  0  0  0  0
  1 24  2  0  0  0  0
  1  2  1  0  0  0  0
  1 25  1  0  0  0  0
  2  3  2  0  0  0  0
  2 26  1  0  0  0  0
  3  4  1  0  0  0  0
  4  5  2  0  0  0  0
  4 27  1  0  0  0  0
  5  6  1  0  0  0  0
  5 24  1  0  0  0  0
  6  7  1  0  0  0  0
  6 28  1  0  0  0  0
  6 29  1  0  0  0  0
  7  8  1  0  0  0  0
  8 13  2  0  0  0  0
  8  9  1  0  0  0  0
  9 10  2  0  0  0  0
  9 30  1  0  0  0  0
 10 11  1  0  0  0  0
 10 31  1  0  0  0  0
 11 12  2  0  0  0  0
 11 32  1  0  0  0  0
 12 13  1  0  0  0  0
 12 33  1  0  0  0  0
 13 14  1  0  0  0  0
 14 22  1  0  0  0  0
 14 15  2  0  0  0  0
 15 16  1  0  0  0  0
 16 21  2  0  0  0  0
 16 17  1  0  0  0  0
 17 18  2  0  0  0  0
 17 34  1  0  0  0  0
 18 19  1  0  0  0  0
 18 35  1  0  0  0  0
 19 20  2  0  0  0  0
 19 36  1  0  0  0  0
 20 21  1  0  0  0  0
 20 37  1  0  0  0  0
 21 22  1  0  0  0  0
 22 23  1  0  0  0  0
 24 38  1  0  0  0  0
M  END
$$$$
