ZINC000000002255      none
 OpenBabel11202420153D

 28 29  0  0  0  0  0  0  0  0999 V2000
   33.4711   34.7613   57.7399 O   0  0  0  0  0  0  0  0  0  0  0  0
   32.8957   35.7909   58.0300 C   0  0  0  0  0  0  0  0  0  0  0  0
   31.9713   35.7929   59.0101 O   0  0  0  0  0  0  0  0  0  0  0  0
   31.2277   34.5630   59.2172 C   0  0  0  0  0  0  0  0  0  0  0  0
   31.9646   33.6865   60.2320 C   0  0  0  0  0  0  0  0  0  0  0  0
   32.0833   34.4053   61.5030 N   0  0  0  0  0  0  0  0  0  0  0  0
   32.4472   35.7149   61.6643 C   0  0  0  0  0  0  0  0  0  0  0  0
   32.4278   35.9645   62.9876 C   0  0  0  0  0  0  0  0  0  0  0  0
   32.0620   34.8381   63.6169 N   0  0  0  0  0  0  0  0  0  0  0  0
   31.8482   33.9014   62.7336 C   0  0  0  0  0  0  0  0  0  0  0  0
   33.2094   37.0411   57.3083 C   0  0  0  0  0  0  0  0  0  0  0  0
   33.0881   38.2731   57.9543 C   0  0  0  0  0  0  0  0  0  0  0  0
   33.3830   39.4366   57.2745 C   0  0  0  0  0  0  0  0  0  0  0  0
   33.7983   39.3848   55.9556 C   0  0  0  0  0  0  0  0  0  0  0  0
   33.9205   38.1673   55.3095 C   0  0  0  0  0  0  0  0  0  0  0  0
   33.6288   36.9961   55.9773 C   0  0  0  0  0  0  0  0  0  0  0  0
   30.2331   34.7990   59.5954 H   0  0  0  0  0  0  0  0  0  0  0  0
   31.1394   34.0281   58.2716 H   0  0  0  0  0  0  0  0  0  0  0  0
   31.4065   32.7631   60.3875 H   0  0  0  0  0  0  0  0  0  0  0  0
   32.9592   33.4505   59.8537 H   0  0  0  0  0  0  0  0  0  0  0  0
   32.7017   36.4138   60.8811 H   0  0  0  0  0  0  0  0  0  0  0  0
   32.6652   36.9066   63.4593 H   0  0  0  0  0  0  0  0  0  0  0  0
   31.5376   32.8902   62.9509 H   0  0  0  0  0  0  0  0  0  0  0  0
   32.7599   38.3152   58.9823 H   0  0  0  0  0  0  0  0  0  0  0  0
   33.2898   40.3902   57.7728 H   0  0  0  0  0  0  0  0  0  0  0  0
   34.0276   40.2988   55.4280 H   0  0  0  0  0  0  0  0  0  0  0  0
   34.2454   38.1340   54.2800 H   0  0  0  0  0  0  0  0  0  0  0  0
   33.7244   36.0466   55.4717 H   0  0  0  0  0  0  0  0  0  0  0  0
  1  2  2  0  0  0  0
  2  3  1  0  0  0  0
  2 11  1  0  0  0  0
  3  4  1  0  0  0  0
  4  5  1  0  0  0  0
  4 17  1  0  0  0  0
  4 18  1  0  0  0  0
  5  6  1  0  0  0  0
  5 19  1  0  0  0  0
  5 20  1  0  0  0  0
  6 10  1  0  0  0  0
  6  7  1  0  0  0  0
  7  8  2  0  0  0  0
  7 21  1  0  0  0  0
  8  9  1  0  0  0  0
  8 22  1  0  0  0  0
  9 10  2  0  0  0  0
 10 23  1  0  0  0  0
 11 16  2  0  0  0  0
 11 12  1  0  0  0  0
 12 13  2  0  0  0  0
 12 24  1  0  0  0  0
 13 14  1  0  0  0  0
 13 25  1  0  0  0  0
 14 15  2  0  0  0  0
 14 26  1  0  0  0  0
 15 16  1  0  0  0  0
 15 27  1  0  0  0  0
 16 28  1  0  0  0  0
M  END
$$$$
