ZINC000000014257      none
 OpenBabel11202420153D

 28 29  0  0  1  0  0  0  0  0999 V2000
   30.2582   39.2845   65.1236 C   0  0  0  0  0  0  0  0  0  0  0  0
   30.6536   38.1775   64.2494 N   0  0  0  0  0  0  0  0  0  0  0  0
   31.6126   37.3026   64.5768 C   0  0  0  0  0  0  0  0  0  0  0  0
   32.2536   37.3160   65.6057 O   0  0  0  0  0  0  0  0  0  0  0  0
   31.7692   36.2942   63.4596 C   0  0  0  0  0  0  0  0  0  0  0  0
   30.7234   36.7428   62.4186 C   0  0  2  0  0  0  0  0  0  0  0  0
   29.6826   35.6444   62.1931 C   0  0  0  0  0  0  0  0  0  0  0  0
   31.3925   37.1120   61.1198 C   0  0  0  0  0  0  0  0  0  0  0  0
   31.5903   36.1506   60.1464 C   0  0  0  0  0  0  0  0  0  0  0  0
   32.1993   36.4905   58.9529 C   0  0  0  0  0  0  0  0  0  0  0  0
   32.6209   37.7892   58.7374 C   0  0  0  0  0  0  0  0  0  0  0  0
   32.4277   38.7495   59.7128 C   0  0  0  0  0  0  0  0  0  0  0  0
   31.8136   38.4108   60.9041 C   0  0  0  0  0  0  0  0  0  0  0  0
   30.0850   37.9591   63.0534 C   0  0  0  0  0  0  0  0  0  0  0  0
   29.2018   38.6267   62.5596 O   0  0  0  0  0  0  0  0  0  0  0  0
   30.8568   39.2600   66.0343 H   0  0  0  0  0  0  0  0  0  0  0  0
   30.4206   40.2309   64.6077 H   0  0  0  0  0  0  0  0  0  0  0  0
   29.2033   39.1865   65.3794 H   0  0  0  0  0  0  0  0  0  0  0  0
   31.5479   35.2885   63.8169 H   0  0  0  0  0  0  0  0  0  0  0  0
   32.7736   36.3407   63.0389 H   0  0  0  0  0  0  0  0  0  0  0  0
   30.1725   34.7560   61.7945 H   0  0  0  0  0  0  0  0  0  0  0  0
   28.9324   35.9945   61.4841 H   0  0  0  0  0  0  0  0  0  0  0  0
   29.2013   35.3998   63.1401 H   0  0  0  0  0  0  0  0  0  0  0  0
   31.2653   35.1348   60.3167 H   0  0  0  0  0  0  0  0  0  0  0  0
   32.3498   35.7404   58.1906 H   0  0  0  0  0  0  0  0  0  0  0  0
   33.1006   38.0537   57.8066 H   0  0  0  0  0  0  0  0  0  0  0  0
   32.7572   39.7641   59.5443 H   0  0  0  0  0  0  0  0  0  0  0  0
   31.6631   39.1609   61.6663 H   0  0  0  0  0  0  0  0  0  0  0  0
  1  2  1  0  0  0  0
  1 16  1  0  0  0  0
  1 17  1  0  0  0  0
  1 18  1  0  0  0  0
  2 14  1  0  0  0  0
  2  3  1  0  0  0  0
  3  4  2  0  0  0  0
  3  5  1  0  0  0  0
  5  6  1  0  0  0  0
  5 19  1  0  0  0  0
  5 20  1  0  0  0  0
  6  7  1  6  0  0  0
  6  8  1  0  0  0  0
  6 14  1  0  0  0  0
  7 21  1  0  0  0  0
  7 22  1  0  0  0  0
  7 23  1  0  0  0  0
  8 13  2  0  0  0  0
  8  9  1  0  0  0  0
  9 10  2  0  0  0  0
  9 24  1  0  0  0  0
 10 11  1  0  0  0  0
 10 25  1  0  0  0  0
 11 12  2  0  0  0  0
 11 26  1  0  0  0  0
 12 13  1  0  0  0  0
 12 27  1  0  0  0  0
 13 28  1  0  0  0  0
 14 15  2  0  0  0  0
M  END
$$$$
