ZINC000000049938      none
 OpenBabel11202420153D

 32 33  0  0  1  0  0  0  0  0999 V2000
   33.8505   38.7821   56.3644 C   0  0  0  0  0  0  0  0  0  0  0  0
   33.4524   39.2386   57.6587 O   0  0  0  0  0  0  0  0  0  0  0  0
   32.7584   38.3650   58.4346 C   0  0  0  0  0  0  0  0  0  0  0  0
   32.3410   38.7420   59.7028 C   0  0  0  0  0  0  0  0  0  0  0  0
   31.6360   37.8520   60.4897 C   0  0  0  0  0  0  0  0  0  0  0  0
   31.3460   36.5866   60.0142 C   0  0  0  0  0  0  0  0  0  0  0  0
   30.5763   35.6178   60.8746 C   0  0  1  0  0  0  0  0  0  0  0  0
   31.3791   34.3718   61.0246 C   0  0  0  0  0  0  0  0  0  0  0  0
   31.2897   33.4041   59.9729 C   0  0  0  0  0  0  0  0  0  0  0  0
   31.2188   32.6363   59.1386 N   0  0  0  0  0  0  0  0  0  0  0  0
   32.1822   34.0785   62.0594 C   0  0  0  0  0  0  0  0  0  0  0  0
   32.8674   32.8868   62.0398 N   0  0  0  0  0  0  0  0  0  0  0  0
   32.3957   35.1419   63.4389 S   0  0  0  0  0  0  0  0  0  0  0  0
   30.9646   36.1491   63.3076 C   0  0  0  0  0  0  0  0  0  0  0  0
   30.5446   36.8372   64.4212 N   0  0  0  0  0  0  0  0  0  0  0  0
   30.2593   36.2798   62.1711 C   0  0  0  0  0  0  0  0  0  0  0  0
   29.1051   37.1264   62.2097 C   0  0  0  0  0  0  0  0  0  0  0  0
   28.1896   37.7982   62.2403 N   0  0  0  0  0  0  0  0  0  0  0  0
   31.7657   36.2064   58.7528 C   0  0  0  0  0  0  0  0  0  0  0  0
   32.4665   37.0945   57.9600 C   0  0  0  0  0  0  0  0  0  0  0  0
   32.9664   38.5149   55.7856 H   0  0  0  0  0  0  0  0  0  0  0  0
   34.3949   39.5746   55.8512 H   0  0  0  0  0  0  0  0  0  0  0  0
   34.4939   37.9084   56.4693 H   0  0  0  0  0  0  0  0  0  0  0  0
   32.5674   39.7304   60.0747 H   0  0  0  0  0  0  0  0  0  0  0  0
   31.3109   38.1451   61.4770 H   0  0  0  0  0  0  0  0  0  0  0  0
   29.6415   35.3720   60.3709 H   0  0  0  0  0  0  0  0  0  0  0  0
   33.4519   32.6512   62.7770 H   0  0  0  0  0  0  0  0  0  0  0  0
   32.7663   32.2815   61.2885 H   0  0  0  0  0  0  0  0  0  0  0  0
   29.7563   37.4005   64.3744 H   0  0  0  0  0  0  0  0  0  0  0  0
   31.0366   36.7597   65.2535 H   0  0  0  0  0  0  0  0  0  0  0  0
   31.5420   35.2157   58.3856 H   0  0  0  0  0  0  0  0  0  0  0  0
   32.7906   36.7985   56.9732 H   0  0  0  0  0  0  0  0  0  0  0  0
  1  2  1  0  0  0  0
  1 21  1  0  0  0  0
  1 22  1  0  0  0  0
  1 23  1  0  0  0  0
  2  3  1  0  0  0  0
  3 20  2  0  0  0  0
  3  4  1  0  0  0  0
  4  5  2  0  0  0  0
  4 24  1  0  0  0  0
  5  6  1  0  0  0  0
  5 25  1  0  0  0  0
  6  7  1  0  0  0  0
  6 19  2  0  0  0  0
  7 16  1  0  0  0  0
  7  8  1  0  0  0  0
  7 26  1  6  0  0  0
  8  9  1  0  0  0  0
  8 11  2  0  0  0  0
  9 10  3  0  0  0  0
 11 12  1  0  0  0  0
 11 13  1  0  0  0  0
 12 27  1  0  0  0  0
 12 28  1  0  0  0  0
 13 14  1  0  0  0  0
 14 15  1  0  0  0  0
 14 16  2  0  0  0  0
 15 29  1  0  0  0  0
 15 30  1  0  0  0  0
 16 17  1  0  0  0  0
 17 18  3  0  0  0  0
 19 20  1  0  0  0  0
 19 31  1  0  0  0  0
 20 32  1  0  0  0  0
M  END
$$$$
