ZINC000000022418      none
 OpenBabel11202420153D

 38 40  0  0  0  0  0  0  0  0999 V2000
   32.0825   32.9250   61.6292 O   0  0  0  0  0  0  0  0  0  0  0  0
   32.0906   33.9005   60.9047 C   0  0  0  0  0  0  0  0  0  0  0  0
   32.2776   33.7370   59.4440 C   0  0  0  0  0  0  0  0  0  0  0  0
   31.1667   33.5707   58.6199 C   0  0  0  0  0  0  0  0  0  0  0  0
   31.3575   33.4194   57.2555 C   0  0  0  0  0  0  0  0  0  0  0  0
   32.6530   33.4399   56.7627 C   0  0  0  0  0  0  0  0  0  0  0  0
   33.7112   33.6096   57.6410 C   0  0  0  0  0  0  0  0  0  0  0  0
   33.5014   33.7559   58.9311 N   0  0  0  0  0  0  0  0  0  0  0  0
   31.9294   35.1312   61.4300 N   0  0  0  0  0  0  0  0  0  0  0  0
   31.9430   36.3205   60.5667 C   0  0  0  0  0  0  0  0  0  0  0  0
   30.6408   37.1051   60.8007 C   0  0  0  0  0  0  0  0  0  0  0  0
   30.4545   37.2823   62.2476 N   0  0  0  0  0  0  0  0  0  0  0  0
   30.2942   38.5131   62.7729 C   0  0  0  0  0  0  0  0  0  0  0  0
   30.3029   39.4888   62.0486 O   0  0  0  0  0  0  0  0  0  0  0  0
   30.1075   38.6765   64.2338 C   0  0  0  0  0  0  0  0  0  0  0  0
   31.0992   38.2412   65.1097 C   0  0  0  0  0  0  0  0  0  0  0  0
   30.9107   38.4014   66.4734 C   0  0  0  0  0  0  0  0  0  0  0  0
   29.7361   38.9916   66.9135 C   0  0  0  0  0  0  0  0  0  0  0  0
   28.7923   39.4010   65.9852 C   0  0  0  0  0  0  0  0  0  0  0  0
   28.9992   39.2415   64.6963 N   0  0  0  0  0  0  0  0  0  0  0  0
   30.4466   36.0935   63.1116 C   0  0  0  0  0  0  0  0  0  0  0  0
   31.7430   35.3084   62.8769 C   0  0  0  0  0  0  0  0  0  0  0  0
   30.1712   33.5600   59.0382 H   0  0  0  0  0  0  0  0  0  0  0  0
   30.5160   33.2889   56.5914 H   0  0  0  0  0  0  0  0  0  0  0  0
   32.8358   33.3251   55.7045 H   0  0  0  0  0  0  0  0  0  0  0  0
   34.7218   33.6260   57.2605 H   0  0  0  0  0  0  0  0  0  0  0  0
   32.7999   36.9454   60.8182 H   0  0  0  0  0  0  0  0  0  0  0  0
   32.0045   36.0138   59.5225 H   0  0  0  0  0  0  0  0  0  0  0  0
   29.7977   36.5506   60.3884 H   0  0  0  0  0  0  0  0  0  0  0  0
   30.7113   38.0802   60.3187 H   0  0  0  0  0  0  0  0  0  0  0  0
   32.0026   37.7856   64.7317 H   0  0  0  0  0  0  0  0  0  0  0  0
   31.6616   38.0741   67.1770 H   0  0  0  0  0  0  0  0  0  0  0  0
   29.5584   39.1313   67.9697 H   0  0  0  0  0  0  0  0  0  0  0  0
   27.8761   39.8612   66.3247 H   0  0  0  0  0  0  0  0  0  0  0  0
   29.5897   35.4670   62.8639 H   0  0  0  0  0  0  0  0  0  0  0  0
   30.3887   36.4005   64.1559 H   0  0  0  0  0  0  0  0  0  0  0  0
   31.6726   34.3333   63.3588 H   0  0  0  0  0  0  0  0  0  0  0  0
   32.5861   35.8629   63.2891 H   0  0  0  0  0  0  0  0  0  0  0  0
  1  2  2  0  0  0  0
  2  3  1  0  0  0  0
  2  9  1  0  0  0  0
  3  8  2  0  0  0  0
  3  4  1  0  0  0  0
  4  5  2  0  0  0  0
  4 23  1  0  0  0  0
  5  6  1  0  0  0  0
  5 24  1  0  0  0  0
  6  7  2  0  0  0  0
  6 25  1  0  0  0  0
  7  8  1  0  0  0  0
  7 26  1  0  0  0  0
  9 22  1  0  0  0  0
  9 10  1  0  0  0  0
 10 11  1  0  0  0  0
 10 27  1  0  0  0  0
 10 28  1  0  0  0  0
 11 12  1  0  0  0  0
 11 29  1  0  0  0  0
 11 30  1  0  0  0  0
 12 13  1  0  0  0  0
 12 21  1  0  0  0  0
 13 14  2  0  0  0  0
 13 15  1  0  0  0  0
 15 20  2  0  0  0  0
 15 16  1  0  0  0  0
 16 17  2  0  0  0  0
 16 31  1  0  0  0  0
 17 18  1  0  0  0  0
 17 32  1  0  0  0  0
 18 19  2  0  0  0  0
 18 33  1  0  0  0  0
 19 20  1  0  0  0  0
 19 34  1  0  0  0  0
 21 22  1  0  0  0  0
 21 35  1  0  0  0  0
 21 36  1  0  0  0  0
 22 37  1  0  0  0  0
 22 38  1  0  0  0  0
M  END
$$$$
