ZINC000000055116      none
 OpenBabel11202420153D

 42 45  0  0  0  0  0  0  0  0999 V2000
   33.2310   37.8866   64.8200 O   0  0  0  0  0  0  0  0  0  0  0  0
   32.2553   37.2550   65.1760 C   0  0  0  0  0  0  0  0  0  0  0  0
   32.0273   36.9947   66.6127 C   0  0  0  0  0  0  0  0  0  0  0  0
   31.9606   35.6829   67.0857 C   0  0  0  0  0  0  0  0  0  0  0  0
   31.7471   35.4471   68.4281 C   0  0  0  0  0  0  0  0  0  0  0  0
   31.5992   36.5072   69.3050 C   0  0  0  0  0  0  0  0  0  0  0  0
   31.3704   36.2465   70.7439 N   0  0  0  0  0  0  0  0  0  0  0  0
   31.3127   35.1010   71.1536 O   0  0  0  0  0  0  0  0  0  0  0  0
   31.2447   37.1776   71.5190 O   0  0  0  0  0  0  0  0  0  0  0  0
   31.6586   37.8097   68.8418 C   0  0  0  0  0  0  0  0  0  0  0  0
   31.8771   38.0597   67.5029 C   0  0  0  0  0  0  0  0  0  0  0  0
   31.3813   36.7919   64.2604 N   0  0  0  0  0  0  0  0  0  0  0  0
   30.2511   36.0558   64.6438 C   0  0  0  0  0  0  0  0  0  0  0  0
   29.3640   36.6586   65.5320 C   0  0  0  0  0  0  0  0  0  0  0  0
   28.2072   36.0133   65.9133 C   0  0  0  0  0  0  0  0  0  0  0  0
   27.9354   34.7573   65.4015 C   0  0  0  0  0  0  0  0  0  0  0  0
   28.8131   34.1627   64.5449 C   0  0  0  0  0  0  0  0  0  0  0  0
   30.0020   34.7876   64.1606 C   0  0  0  0  0  0  0  0  0  0  0  0
   30.8854   33.9582   63.2539 C   0  0  0  0  0  0  0  0  0  0  0  0
   32.1835   34.6581   62.8917 C   0  0  0  0  0  0  0  0  0  0  0  0
   31.9293   35.9368   62.1372 C   0  0  0  0  0  0  0  0  0  0  0  0
   32.0908   36.0425   60.7746 C   0  0  0  0  0  0  0  0  0  0  0  0
   31.9193   37.2828   60.1770 C   0  0  0  0  0  0  0  0  0  0  0  0
   31.5907   38.3893   60.9394 C   0  0  0  0  0  0  0  0  0  0  0  0
   31.4130   38.2695   62.3083 C   0  0  0  0  0  0  0  0  0  0  0  0
   31.5738   37.0247   62.8907 C   0  0  0  0  0  0  0  0  0  0  0  0
   32.0764   34.8548   66.4024 H   0  0  0  0  0  0  0  0  0  0  0  0
   31.6950   34.4328   68.7954 H   0  0  0  0  0  0  0  0  0  0  0  0
   31.5374   38.6325   69.5308 H   0  0  0  0  0  0  0  0  0  0  0  0
   31.9276   39.0769   67.1434 H   0  0  0  0  0  0  0  0  0  0  0  0
   29.5841   37.6400   65.9251 H   0  0  0  0  0  0  0  0  0  0  0  0
   27.5217   36.4825   66.6035 H   0  0  0  0  0  0  0  0  0  0  0  0
   27.0234   34.2491   65.6783 H   0  0  0  0  0  0  0  0  0  0  0  0
   28.5846   33.1798   64.1600 H   0  0  0  0  0  0  0  0  0  0  0  0
   30.3385   33.7366   62.3375 H   0  0  0  0  0  0  0  0  0  0  0  0
   31.1207   33.0205   63.7573 H   0  0  0  0  0  0  0  0  0  0  0  0
   32.7861   33.9931   62.2730 H   0  0  0  0  0  0  0  0  0  0  0  0
   32.7308   34.8868   63.8062 H   0  0  0  0  0  0  0  0  0  0  0  0
   32.3465   35.1767   60.1818 H   0  0  0  0  0  0  0  0  0  0  0  0
   32.0436   37.3853   59.1091 H   0  0  0  0  0  0  0  0  0  0  0  0
   31.4722   39.3521   60.4648 H   0  0  0  0  0  0  0  0  0  0  0  0
   31.1541   39.1295   62.9081 H   0  0  0  0  0  0  0  0  0  0  0  0
  1  2  2  0  0  0  0
  2  3  1  0  0  0  0
  2 12  1  0  0  0  0
  3 11  2  0  0  0  0
  3  4  1  0  0  0  0
  4  5  2  0  0  0  0
  4 27  1  0  0  0  0
  5  6  1  0  0  0  0
  5 28  1  0  0  0  0
  6  7  1  0  0  0  0
  6 10  2  0  0  0  0
  7  8  2  0  0  0  0
  7  9  2  0  0  0  0
 10 11  1  0  0  0  0
 10 29  1  0  0  0  0
 11 30  1  0  0  0  0
 12 26  1  0  0  0  0
 12 13  1  0  0  0  0
 13 18  2  0  0  0  0
 13 14  1  0  0  0  0
 14 15  2  0  0  0  0
 14 31  1  0  0  0  0
 15 16  1  0  0  0  0
 15 32  1  0  0  0  0
 16 17  2  0  0  0  0
 16 33  1  0  0  0  0
 17 18  1  0  0  0  0
 17 34  1  0  0  0  0
 18 19  1  0  0  0  0
 19 20  1  0  0  0  0
 19 35  1  0  0  0  0
 19 36  1  0  0  0  0
 20 21  1  0  0  0  0
 20 37  1  0  0  0  0
 20 38  1  0  0  0  0
 21 26  2  0  0  0  0
 21 22  1  0  0  0  0
 22 23  2  0  0  0  0
 22 39  1  0  0  0  0
 23 24  1  0  0  0  0
 23 40  1  0  0  0  0
 24 25  2  0  0  0  0
 24 41  1  0  0  0  0
 25 26  1  0  0  0  0
 25 42  1  0  0  0  0
M  END
$$$$
