ZINC000000008662      none
 OpenBabel11202420153D

 31 33  0  0  0  0  0  0  0  0999 V2000
   32.4369   34.9484   58.9243 O   0  0  0  0  0  0  0  0  0  0  0  0
   32.4390   36.0919   59.3509 C   0  0  0  0  0  0  0  0  0  0  0  0
   32.0448   36.3821   60.6804 C   0  0  0  0  0  0  0  0  0  0  0  0
   31.6527   35.3813   61.5149 O   0  0  0  0  0  0  0  0  0  0  0  0
   32.0622   37.6845   61.1186 C   0  0  0  0  0  0  0  0  0  0  0  0
   31.6495   37.9747   62.5039 C   0  0  0  0  0  0  0  0  0  0  0  0
   30.5623   38.8185   62.7489 C   0  0  0  0  0  0  0  0  0  0  0  0
   30.1819   39.0934   64.0448 C   0  0  0  0  0  0  0  0  0  0  0  0
   30.8725   38.5297   65.1087 C   0  0  0  0  0  0  0  0  0  0  0  0
   30.4933   38.8042   66.3843 O   0  0  0  0  0  0  0  0  0  0  0  0
   31.9541   37.6832   64.8719 C   0  0  0  0  0  0  0  0  0  0  0  0
   32.6282   37.1328   65.9169 O   0  0  0  0  0  0  0  0  0  0  0  0
   32.3413   37.4029   63.5756 C   0  0  0  0  0  0  0  0  0  0  0  0
   32.4370   38.7029   60.3269 O   0  0  0  0  0  0  0  0  0  0  0  0
   32.8324   38.5182   59.0497 C   0  0  0  0  0  0  0  0  0  0  0  0
   33.2172   39.5985   58.2638 C   0  0  0  0  0  0  0  0  0  0  0  0
   33.6133   39.3963   56.9599 C   0  0  0  0  0  0  0  0  0  0  0  0
   33.6333   38.1154   56.4153 C   0  0  0  0  0  0  0  0  0  0  0  0
   34.0268   37.9324   55.1269 O   0  0  0  0  0  0  0  0  0  0  0  0
   33.2539   37.0294   57.1810 C   0  0  0  0  0  0  0  0  0  0  0  0
   32.8516   37.2259   58.5018 C   0  0  0  0  0  0  0  0  0  0  0  0
   30.7043   35.1941   61.4861 H   0  0  0  0  0  0  0  0  0  0  0  0
   30.0234   39.2587   61.9229 H   0  0  0  0  0  0  0  0  0  0  0  0
   29.3448   39.7494   64.2329 H   0  0  0  0  0  0  0  0  0  0  0  0
   29.7347   39.4002   66.4494 H   0  0  0  0  0  0  0  0  0  0  0  0
   32.2842   37.3867   66.7843 H   0  0  0  0  0  0  0  0  0  0  0  0
   33.1792   36.7470   63.3908 H   0  0  0  0  0  0  0  0  0  0  0  0
   33.2052   40.5968   58.6757 H   0  0  0  0  0  0  0  0  0  0  0  0
   33.9107   40.2396   56.3543 H   0  0  0  0  0  0  0  0  0  0  0  0
   34.0081   37.0100   54.8372 H   0  0  0  0  0  0  0  0  0  0  0  0
   33.2690   36.0351   56.7595 H   0  0  0  0  0  0  0  0  0  0  0  0
  1  2  2  0  0  0  0
  2 21  1  0  0  0  0
  2  3  1  0  0  0  0
  3  4  1  0  0  0  0
  3  5  2  0  0  0  0
  4 22  1  0  0  0  0
  5  6  1  0  0  0  0
  5 14  1  0  0  0  0
  6 13  2  0  0  0  0
  6  7  1  0  0  0  0
  7  8  2  0  0  0  0
  7 23  1  0  0  0  0
  8  9  1  0  0  0  0
  8 24  1  0  0  0  0
  9 10  1  0  0  0  0
  9 11  2  0  0  0  0
 10 25  1  0  0  0  0
 11 12  1  0  0  0  0
 11 13  1  0  0  0  0
 12 26  1  0  0  0  0
 13 27  1  0  0  0  0
 14 15  1  0  0  0  0
 15 21  2  0  0  0  0
 15 16  1  0  0  0  0
 16 17  2  0  0  0  0
 16 28  1  0  0  0  0
 17 18  1  0  0  0  0
 17 29  1  0  0  0  0
 18 19  1  0  0  0  0
 18 20  2  0  0  0  0
 19 30  1  0  0  0  0
 20 21  1  0  0  0  0
 20 31  1  0  0  0  0
M  END
$$$$
