ZINC000000002151      none
 OpenBabel11202420153D

 21 22  0  0  0  0  0  0  0  0999 V2000
   31.1133   35.3316   62.7255 C   0  0  0  0  0  0  0  0  0  0  0  0
   31.5732   35.5219   61.3476 N   0  0  0  0  0  0  0  0  0  0  0  0
   31.7601   34.5583   60.4247 C   0  0  0  0  0  0  0  0  0  0  0  0
   32.1734   35.0942   59.3045 N   0  0  0  0  0  0  0  0  0  0  0  0
   32.2816   36.4174   59.4488 C   0  0  0  0  0  0  0  0  0  0  0  0
   31.9029   36.7221   60.7503 C   0  0  0  0  0  0  0  0  0  0  0  0
   31.9243   38.0678   61.1756 C   0  0  0  0  0  0  0  0  0  0  0  0
   31.5964   38.3602   62.3116 O   0  0  0  0  0  0  0  0  0  0  0  0
   32.3124   39.0265   60.3091 N   0  0  0  0  0  0  0  0  0  0  0  0
   32.3288   39.9526   60.5971 H   0  0  0  0  0  0  0  0  0  0  0  0
   32.6762   38.7176   59.0525 C   0  0  0  0  0  0  0  0  0  0  0  0
   33.0196   39.6082   58.2990 O   0  0  0  0  0  0  0  0  0  0  0  0
   32.6698   37.4471   58.6069 N   0  0  0  0  0  0  0  0  0  0  0  0
   33.0742   37.1529   57.2299 C   0  0  0  0  0  0  0  0  0  0  0  0
   30.0258   35.3980   62.7581 H   0  0  0  0  0  0  0  0  0  0  0  0
   31.5438   36.1045   63.3622 H   0  0  0  0  0  0  0  0  0  0  0  0
   31.4283   34.3506   63.0814 H   0  0  0  0  0  0  0  0  0  0  0  0
   31.5921   33.5035   60.5844 H   0  0  0  0  0  0  0  0  0  0  0  0
   32.2013   37.1933   56.5784 H   0  0  0  0  0  0  0  0  0  0  0  0
   33.8072   37.8896   56.9013 H   0  0  0  0  0  0  0  0  0  0  0  0
   33.5149   36.1569   57.1856 H   0  0  0  0  0  0  0  0  0  0  0  0
  1  2  1  0  0  0  0
  1 15  1  0  0  0  0
  1 16  1  0  0  0  0
  1 17  1  0  0  0  0
  2  6  1  0  0  0  0
  2  3  1  0  0  0  0
  3  4  2  0  0  0  0
  3 18  1  0  0  0  0
  4  5  1  0  0  0  0
  5 13  1  0  0  0  0
  5  6  2  0  0  0  0
  6  7  1  0  0  0  0
  7  8  2  0  0  0  0
  7  9  1  0  0  0  0
  9 10  1  0  0  0  0
  9 11  1  0  0  0  0
 11 12  2  0  0  0  0
 11 13  1  0  0  0  0
 13 14  1  0  0  0  0
 14 19  1  0  0  0  0
 14 20  1  0  0  0  0
 14 21  1  0  0  0  0
M  END
$$$$
