ZINC000000038136      none
 OpenBabel11202420153D

 47 50  0  0  0  0  0  0  0  0999 V2000
   33.8951   37.2078   55.2711 C   0  0  0  0  0  0  0  0  0  0  0  0
   33.4195   37.1674   56.7005 C   0  0  0  0  0  0  0  0  0  0  0  0
   33.1275   38.3464   57.3629 C   0  0  0  0  0  0  0  0  0  0  0  0
   32.6913   38.3160   58.6716 C   0  0  0  0  0  0  0  0  0  0  0  0
   32.5449   37.0932   59.3266 C   0  0  0  0  0  0  0  0  0  0  0  0
   32.0771   37.0535   60.7310 C   0  0  0  0  0  0  0  0  0  0  0  0
   32.9426   37.1002   61.7290 N   0  0  0  0  0  0  0  0  0  0  0  0
   32.5971   37.0698   62.9621 N   0  0  0  0  0  0  0  0  0  0  0  0
   31.3401   36.9887   63.3635 C   0  0  0  0  0  0  0  0  0  0  0  0
   31.0336   36.9603   64.7134 N   0  0  0  0  0  0  0  0  0  0  0  0
   30.6274   38.3001   65.1933 C   0  0  0  0  0  0  0  0  0  0  0  0
   30.5479   38.3835   66.6933 C   0  0  0  0  0  0  0  0  0  0  0  0
   31.8973   38.9081   67.2267 C   0  0  0  0  0  0  0  0  0  0  0  0
   32.9192   37.8675   67.2587 C   0  0  0  0  0  0  0  0  0  0  0  0
   33.2160   37.2990   65.8552 C   0  0  0  0  0  0  0  0  0  0  0  0
   32.1236   36.3306   65.4917 C   0  0  0  0  0  0  0  0  0  0  0  0
   30.3133   36.9318   62.3927 C   0  0  0  0  0  0  0  0  0  0  0  0
   28.9585   36.8455   62.7295 C   0  0  0  0  0  0  0  0  0  0  0  0
   28.0236   36.7954   61.7373 C   0  0  0  0  0  0  0  0  0  0  0  0
   28.3980   36.8278   60.3966 C   0  0  0  0  0  0  0  0  0  0  0  0
   29.7110   36.9117   60.0350 C   0  0  0  0  0  0  0  0  0  0  0  0
   30.6940   36.9653   61.0272 C   0  0  0  0  0  0  0  0  0  0  0  0
   32.8464   35.9083   58.6551 C   0  0  0  0  0  0  0  0  0  0  0  0
   33.2764   35.9515   57.3447 C   0  0  0  0  0  0  0  0  0  0  0  0
   34.9828   37.2757   55.2519 H   0  0  0  0  0  0  0  0  0  0  0  0
   33.5786   36.3002   54.7571 H   0  0  0  0  0  0  0  0  0  0  0  0
   33.4679   38.0767   54.7705 H   0  0  0  0  0  0  0  0  0  0  0  0
   33.2416   39.2926   56.8547 H   0  0  0  0  0  0  0  0  0  0  0  0
   32.4633   39.2370   59.1875 H   0  0  0  0  0  0  0  0  0  0  0  0
   31.3502   39.0348   64.8383 H   0  0  0  0  0  0  0  0  0  0  0  0
   29.6499   38.5418   64.7755 H   0  0  0  0  0  0  0  0  0  0  0  0
   30.3512   37.3937   67.1051 H   0  0  0  0  0  0  0  0  0  0  0  0
   29.7496   39.0680   66.9802 H   0  0  0  0  0  0  0  0  0  0  0  0
   31.7530   39.2935   68.2362 H   0  0  0  0  0  0  0  0  0  0  0  0
   32.2396   39.7205   66.5856 H   0  0  0  0  0  0  0  0  0  0  0  0
   32.5790   37.0575   67.9038 H   0  0  0  0  0  0  0  0  0  0  0  0
   33.8369   38.2855   67.6725 H   0  0  0  0  0  0  0  0  0  0  0  0
   34.1755   36.7821   65.8649 H   0  0  0  0  0  0  0  0  0  0  0  0
   33.2418   38.1115   65.1290 H   0  0  0  0  0  0  0  0  0  0  0  0
   31.7054   35.9126   66.4073 H   0  0  0  0  0  0  0  0  0  0  0  0
   32.5536   35.5207   64.9025 H   0  0  0  0  0  0  0  0  0  0  0  0
   28.6552   36.8189   63.7657 H   0  0  0  0  0  0  0  0  0  0  0  0
   26.9771   36.7295   61.9958 H   0  0  0  0  0  0  0  0  0  0  0  0
   27.6374   36.7863   59.6310 H   0  0  0  0  0  0  0  0  0  0  0  0
   29.9881   36.9368   58.9915 H   0  0  0  0  0  0  0  0  0  0  0  0
   32.7393   34.9588   59.1585 H   0  0  0  0  0  0  0  0  0  0  0  0
   33.5059   35.0346   56.8223 H   0  0  0  0  0  0  0  0  0  0  0  0
  1  2  1  0  0  0  0
  1 25  1  0  0  0  0
  1 26  1  0  0  0  0
  1 27  1  0  0  0  0
  2 24  2  0  0  0  0
  2  3  1  0  0  0  0
  3  4  2  0  0  0  0
  3 28  1  0  0  0  0
  4  5  1  0  0  0  0
  4 29  1  0  0  0  0
  5  6  1  0  0  0  0
  5 23  2  0  0  0  0
  6 22  2  0  0  0  0
  6  7  1  0  0  0  0
  7  8  2  0  0  0  0
  8  9  1  0  0  0  0
  9 10  1  0  0  0  0
  9 17  2  0  0  0  0
 10 16  1  0  0  0  0
 10 11  1  0  0  0  0
 11 12  1  0  0  0  0
 11 30  1  0  0  0  0
 11 31  1  0  0  0  0
 12 13  1  0  0  0  0
 12 32  1  0  0  0  0
 12 33  1  0  0  0  0
 13 14  1  0  0  0  0
 13 34  1  0  0  0  0
 13 35  1  0  0  0  0
 14 15  1  0  0  0  0
 14 36  1  0  0  0  0
 14 37  1  0  0  0  0
 15 16  1  0  0  0  0
 15 38  1  0  0  0  0
 15 39  1  0  0  0  0
 16 40  1  0  0  0  0
 16 41  1  0  0  0  0
 17 22  1  0  0  0  0
 17 18  1  0  0  0  0
 18 19  2  0  0  0  0
 18 42  1  0  0  0  0
 19 20  1  0  0  0  0
 19 43  1  0  0  0  0
 20 21  2  0  0  0  0
 20 44  1  0  0  0  0
 21 22  1  0  0  0  0
 21 45  1  0  0  0  0
 23 24  1  0  0  0  0
 23 46  1  0  0  0  0
 24 47  1  0  0  0  0
M  END
$$$$
