ZINC000000052352      none
 OpenBabel11202420153D

 24 25  0  0  0  0  0  0  0  0999 V2000
   31.6445   37.9434   60.4703 C   0  0  0  0  0  0  0  0  0  0  0  0
   32.1398   37.3227   59.2392 N   0  0  0  0  0  0  0  0  0  0  0  0
   32.3601   37.9168   58.1162 N   0  0  0  0  0  0  0  0  0  0  0  0
   32.7959   37.0664   57.2559 N   0  0  0  0  0  0  0  0  0  0  0  0
   32.8645   35.8551   57.8099 C   0  0  0  0  0  0  0  0  0  0  0  0
   33.2891   34.6809   57.1805 N   0  0  0  0  0  0  0  0  0  0  0  0
   33.6793   34.7107   55.8909 C   0  0  0  0  0  0  0  0  0  0  0  0
   33.6620   35.7587   55.2746 O   0  0  0  0  0  0  0  0  0  0  0  0
   34.1278   33.4707   55.2262 C   0  0  0  0  0  0  0  0  0  0  0  0
   34.7425   32.4596   55.9682 C   0  0  0  0  0  0  0  0  0  0  0  0
   35.1640   31.3069   55.3406 C   0  0  0  0  0  0  0  0  0  0  0  0
   34.9702   31.1437   53.9793 C   0  0  0  0  0  0  0  0  0  0  0  0
   34.3635   32.1387   53.2363 C   0  0  0  0  0  0  0  0  0  0  0  0
   33.9398   33.3032   53.8507 C   0  0  0  0  0  0  0  0  0  0  0  0
   33.3459   34.2753   53.1244 F   0  0  0  0  0  0  0  0  0  0  0  0
   32.4647   35.9681   59.0593 N   0  0  0  0  0  0  0  0  0  0  0  0
   32.4880   38.2905   61.0670 H   0  0  0  0  0  0  0  0  0  0  0  0
   31.0048   38.7893   60.2188 H   0  0  0  0  0  0  0  0  0  0  0  0
   31.0721   37.2121   61.0411 H   0  0  0  0  0  0  0  0  0  0  0  0
   33.3029   33.8447   57.6721 H   0  0  0  0  0  0  0  0  0  0  0  0
   34.8913   32.5824   57.0308 H   0  0  0  0  0  0  0  0  0  0  0  0
   35.6433   30.5267   55.9134 H   0  0  0  0  0  0  0  0  0  0  0  0
   35.2985   30.2359   53.4950 H   0  0  0  0  0  0  0  0  0  0  0  0
   34.2196   32.0065   52.1742 H   0  0  0  0  0  0  0  0  0  0  0  0
  1  2  1  0  0  0  0
  1 17  1  0  0  0  0
  1 18  1  0  0  0  0
  1 19  1  0  0  0  0
  2 16  1  0  0  0  0
  2  3  1  0  0  0  0
  3  4  2  0  0  0  0
  4  5  1  0  0  0  0
  5  6  1  0  0  0  0
  5 16  2  0  0  0  0
  6  7  1  0  0  0  0
  6 20  1  0  0  0  0
  7  8  2  0  0  0  0
  7  9  1  0  0  0  0
  9 14  2  0  0  0  0
  9 10  1  0  0  0  0
 10 11  2  0  0  0  0
 10 21  1  0  0  0  0
 11 12  1  0  0  0  0
 11 22  1  0  0  0  0
 12 13  2  0  0  0  0
 12 23  1  0  0  0  0
 13 14  1  0  0  0  0
 13 24  1  0  0  0  0
 14 15  1  0  0  0  0
M  END
$$$$
