ZINC000000000015      none
 OpenBabel11202420153D

 25 24  0  0  1  0  0  0  0  0999 V2000
   29.3380   34.8891   65.9361 C   0  0  0  0  0  0  0  0  0  0  0  0
   30.3636   35.9832   65.6322 C   0  0  1  0  0  0  0  0  0  0  0  0
   30.0043   36.9361   66.0209 H   0  0  0  0  0  0  0  0  0  0  0  0
   31.6763   35.6367   66.2858 C   0  0  0  0  0  0  0  0  0  0  0  0
   31.6910   34.9885   67.3183 O   0  0  0  0  0  0  0  0  0  0  0  0
   32.7240   36.0046   65.7823 O   0  0  0  0  0  1  0  0  0  0  0  0
   30.5524   36.0872   64.1791 N   0  3  0  0  0  0  0  0  0  0  0  0
   31.4298   36.5466   63.9861 H   0  0  0  0  0  0  0  0  0  0  0  0
   29.4525   36.8677   63.5969 C   0  0  0  0  0  0  0  0  0  0  0  0
   29.7198   38.3596   63.8053 C   0  0  0  0  0  0  0  0  0  0  0  0
   28.3698   39.3176   63.0908 Cl  0  0  0  0  0  0  0  0  0  0  0  0
   30.5640   34.7418   63.5893 C   0  0  0  0  0  0  0  0  0  0  0  0
   31.2380   34.7925   62.2168 C   0  0  0  0  0  0  0  0  0  0  0  0
   31.2522   33.1412   61.4929 Cl  0  0  0  0  0  0  0  0  0  0  0  0
   29.1206   34.8815   67.0042 H   0  0  0  0  0  0  0  0  0  0  0  0
   28.4213   35.0858   65.3802 H   0  0  0  0  0  0  0  0  0  0  0  0
   29.7416   33.9206   65.6405 H   0  0  0  0  0  0  0  0  0  0  0  0
   28.5161   36.5949   64.0836 H   0  0  0  0  0  0  0  0  0  0  0  0
   29.3824   36.6567   62.5299 H   0  0  0  0  0  0  0  0  0  0  0  0
   29.7899   38.5707   64.8724 H   0  0  0  0  0  0  0  0  0  0  0  0
   30.6562   38.6325   63.3186 H   0  0  0  0  0  0  0  0  0  0  0  0
   31.1163   34.0644   64.2406 H   0  0  0  0  0  0  0  0  0  0  0  0
   29.5399   34.3850   63.4784 H   0  0  0  0  0  0  0  0  0  0  0  0
   30.6856   35.4699   61.5655 H   0  0  0  0  0  0  0  0  0  0  0  0
   32.2619   35.1495   62.3277 H   0  0  0  0  0  0  0  0  0  0  0  0
  1  2  1  0  0  0  0
  1 15  1  0  0  0  0
  1 16  1  0  0  0  0
  1 17  1  0  0  0  0
  2  3  1  1  0  0  0
  2  4  1  0  0  0  0
  2  7  1  0  0  0  0
  4  5  2  0  0  0  0
  4  6  1  0  0  0  0
  7  8  1  0  0  0  0
  7  9  1  0  0  0  0
  7 12  1  0  0  0  0
  9 10  1  0  0  0  0
  9 18  1  0  0  0  0
  9 19  1  0  0  0  0
 10 11  1  0  0  0  0
 10 20  1  0  0  0  0
 10 21  1  0  0  0  0
 12 13  1  0  0  0  0
 12 22  1  0  0  0  0
 12 23  1  0  0  0  0
 13 14  1  0  0  0  0
 13 24  1  0  0  0  0
 13 25  1  0  0  0  0
M  CHG  1   7   1
M  END
$$$$
