ZINC000000032518      none
 OpenBabel11202420153D

 30 32  0  0  0  0  0  0  0  0999 V2000
   32.6849   40.3753   58.2357 O   0  0  0  0  0  0  0  0  0  0  0  0
   33.1414   39.7521   57.2941 N   0  0  0  0  0  0  0  0  0  0  0  0
   33.6250   40.3465   56.3474 O   0  0  0  0  0  0  0  0  0  0  0  0
   33.1085   38.2724   57.3002 C   0  0  0  0  0  0  0  0  0  0  0  0
   33.6265   37.5664   56.2305 C   0  0  0  0  0  0  0  0  0  0  0  0
   33.5968   36.1801   56.2334 C   0  0  0  0  0  0  0  0  0  0  0  0
   33.0471   35.5026   57.3158 C   0  0  0  0  0  0  0  0  0  0  0  0
   32.5279   36.2169   58.3848 C   0  0  0  0  0  0  0  0  0  0  0  0
   32.5596   37.5989   58.3750 C   0  0  0  0  0  0  0  0  0  0  0  0
   31.9942   38.3725   59.5382 C   0  0  0  0  0  0  0  0  0  0  0  0
   31.4534   37.3966   60.5851 C   0  0  0  0  0  0  0  0  0  0  0  0
   31.3968   37.8773   62.0365 C   0  0  0  0  0  0  0  0  0  0  0  0
   32.4426   36.8440   61.6132 C   0  0  0  0  0  0  0  0  0  0  0  0
   33.0155   34.1422   57.3426 O   0  0  0  0  0  0  0  0  0  0  0  0
   33.2040   33.4692   56.0930 C   0  0  0  0  0  0  0  0  0  0  0  0
   34.3987   34.1124   55.3759 C   0  0  0  0  0  0  0  0  0  0  0  0
   34.1033   35.4986   55.1696 O   0  0  0  0  0  0  0  0  0  0  0  0
   34.0550   38.0949   55.3918 H   0  0  0  0  0  0  0  0  0  0  0  0
   32.0983   35.6931   59.2258 H   0  0  0  0  0  0  0  0  0  0  0  0
   32.7788   38.9846   59.9831 H   0  0  0  0  0  0  0  0  0  0  0  0
   31.1862   39.0151   59.1888 H   0  0  0  0  0  0  0  0  0  0  0  0
   30.6595   36.7327   60.2431 H   0  0  0  0  0  0  0  0  0  0  0  0
   31.7447   38.8889   62.2456 H   0  0  0  0  0  0  0  0  0  0  0  0
   30.5652   37.5299   62.6497 H   0  0  0  0  0  0  0  0  0  0  0  0
   32.2991   35.8165   61.9478 H   0  0  0  0  0  0  0  0  0  0  0  0
   33.4786   37.1756   61.5437 H   0  0  0  0  0  0  0  0  0  0  0  0
   33.4073   32.4133   56.2713 H   0  0  0  0  0  0  0  0  0  0  0  0
   32.3083   33.5733   55.4808 H   0  0  0  0  0  0  0  0  0  0  0  0
   35.2933   34.0135   55.9908 H   0  0  0  0  0  0  0  0  0  0  0  0
   34.5569   33.6238   54.4145 H   0  0  0  0  0  0  0  0  0  0  0  0
  1  2  2  0  0  0  0
  2  3  2  0  0  0  0
  2  4  1  0  0  0  0
  4  9  2  0  0  0  0
  4  5  1  0  0  0  0
  5  6  2  0  0  0  0
  5 18  1  0  0  0  0
  6 17  1  0  0  0  0
  6  7  1  0  0  0  0
  7  8  2  0  0  0  0
  7 14  1  0  0  0  0
  8  9  1  0  0  0  0
  8 19  1  0  0  0  0
  9 10  1  0  0  0  0
 10 11  1  0  0  0  0
 10 20  1  0  0  0  0
 10 21  1  0  0  0  0
 11 13  1  0  0  0  0
 11 12  1  0  0  0  0
 11 22  1  0  0  0  0
 12 13  1  0  0  0  0
 12 23  1  0  0  0  0
 12 24  1  0  0  0  0
 13 25  1  0  0  0  0
 13 26  1  0  0  0  0
 14 15  1  0  0  0  0
 15 16  1  0  0  0  0
 15 27  1  0  0  0  0
 15 28  1  0  0  0  0
 16 17  1  0  0  0  0
 16 29  1  0  0  0  0
 16 30  1  0  0  0  0
M  END
$$$$
