ZINC000000039540      none
 OpenBabel11202420153D

 21 21  0  0  1  0  0  0  0  0999 V2000
   32.7668   36.4045   63.2819 C   0  0  0  0  0  0  0  0  0  0  0  0
   31.2416   36.4450   63.3960 C   0  0  0  0  0  0  0  0  0  0  0  0
   30.6451   35.0865   63.0223 C   0  0  0  0  0  0  0  0  0  0  0  0
   30.8398   36.8223   64.7638 N   0  3  0  0  0  0  0  0  0  0  0  0
   30.3468   36.0447   65.1766 H   0  0  0  0  0  0  0  0  0  0  0  0
   31.6742   36.9923   65.3051 H   0  0  0  0  0  0  0  0  0  0  0  0
   29.9843   38.0092   64.8481 C   0  0  1  0  0  0  0  0  0  0  0  0
   28.9388   37.7095   64.7759 H   0  0  0  0  0  0  0  0  0  0  0  0
   30.2169   38.7036   66.1653 C   0  0  0  0  0  0  0  0  0  0  0  0
   30.5458   38.0575   67.1454 O   0  0  0  0  0  0  0  0  0  0  0  0
   30.0762   39.9118   66.2507 O   0  0  0  0  0  1  0  0  0  0  0  0
   30.3269   38.9795   63.6844 C   0  0  0  0  0  0  0  0  0  0  0  0
   30.5561   37.7639   62.3191 S   0  0  0  0  0  0  0  0  0  0  0  0
   33.1643   35.6718   63.9841 H   0  0  0  0  0  0  0  0  0  0  0  0
   33.0479   36.1245   62.2667 H   0  0  0  0  0  0  0  0  0  0  0  0
   33.1747   37.3884   63.5135 H   0  0  0  0  0  0  0  0  0  0  0  0
   29.5575   35.1415   63.0709 H   0  0  0  0  0  0  0  0  0  0  0  0
   30.9506   34.8218   62.0100 H   0  0  0  0  0  0  0  0  0  0  0  0
   31.0021   34.3286   63.7195 H   0  0  0  0  0  0  0  0  0  0  0  0
   31.2465   39.5297   63.8839 H   0  0  0  0  0  0  0  0  0  0  0  0
   29.4997   39.6582   63.4764 H   0  0  0  0  0  0  0  0  0  0  0  0
  1  2  1  0  0  0  0
  1 14  1  0  0  0  0
  1 15  1  0  0  0  0
  1 16  1  0  0  0  0
  2 13  1  0  0  0  0
  2  3  1  0  0  0  0
  2  4  1  0  0  0  0
  3 17  1  0  0  0  0
  3 18  1  0  0  0  0
  3 19  1  0  0  0  0
  4  5  1  0  0  0  0
  4  6  1  0  0  0  0
  4  7  1  0  0  0  0
  7  8  1  6  0  0  0
  7  9  1  0  0  0  0
  7 12  1  0  0  0  0
  9 10  2  0  0  0  0
  9 11  1  0  0  0  0
 12 13  1  0  0  0  0
 12 20  1  0  0  0  0
 12 21  1  0  0  0  0
M  CHG  1   4   1
M  END
$$$$
