ZINC000000033406      none
 OpenBabel11202420153D

 29 30  0  0  0  0  0  0  0  0999 V2000
   32.1389   36.2287   52.4425 C   0  0  0  0  0  0  0  0  0  0  0  0
   32.5647   35.8774   53.8446 C   0  0  0  0  0  0  0  0  0  0  0  0
   33.1601   34.6727   54.2431 C   0  0  0  0  0  0  0  0  0  0  0  0
   33.3879   34.7400   55.5731 C   0  0  0  0  0  0  0  0  0  0  0  0
   34.0116   33.6647   56.4251 C   0  0  0  0  0  0  0  0  0  0  0  0
   32.9572   35.9582   56.0031 N   0  0  0  0  0  0  0  0  0  0  0  0
   33.0121   36.4191   57.2682 C   0  0  0  0  0  0  0  0  0  0  0  0
   32.9440   35.6431   58.2014 O   0  0  0  0  0  0  0  0  0  0  0  0
   33.1542   37.8595   57.5198 C   0  0  0  0  0  0  0  0  0  0  0  0
   32.6695   38.5658   58.6090 C   0  0  0  0  0  0  0  0  0  0  0  0
   31.9034   38.0305   59.7569 N   0  0  0  0  0  0  0  0  0  0  0  0
   31.6360   36.8434   59.8101 O   0  0  0  0  0  0  0  0  0  0  0  0
   31.5405   38.7772   60.6482 O   0  0  0  0  0  0  0  0  0  0  0  0
   33.0595   39.8891   58.3947 C   0  0  0  0  0  0  0  0  0  0  0  0
   33.7115   39.9376   57.2609 N   0  0  0  0  0  0  0  0  0  0  0  0
   33.7860   38.7733   56.7235 N   0  0  0  0  0  0  0  0  0  0  0  0
   34.4473   38.4709   55.4517 C   0  0  0  0  0  0  0  0  0  0  0  0
   32.4467   36.6466   54.8948 N   0  0  0  0  0  0  0  0  0  0  0  0
   32.9671   36.7079   51.9204 H   0  0  0  0  0  0  0  0  0  0  0  0
   31.8515   35.3209   51.9118 H   0  0  0  0  0  0  0  0  0  0  0  0
   31.2900   36.9112   52.4808 H   0  0  0  0  0  0  0  0  0  0  0  0
   33.3933   33.8366   53.6004 H   0  0  0  0  0  0  0  0  0  0  0  0
   33.2309   33.0113   56.8146 H   0  0  0  0  0  0  0  0  0  0  0  0
   34.5483   34.1244   57.2551 H   0  0  0  0  0  0  0  0  0  0  0  0
   34.7069   33.0807   55.8219 H   0  0  0  0  0  0  0  0  0  0  0  0
   32.8559   40.7254   59.0470 H   0  0  0  0  0  0  0  0  0  0  0  0
   33.7302   38.5698   54.6368 H   0  0  0  0  0  0  0  0  0  0  0  0
   35.2718   39.1667   55.2965 H   0  0  0  0  0  0  0  0  0  0  0  0
   34.8319   37.4513   55.4756 H   0  0  0  0  0  0  0  0  0  0  0  0
  1  2  1  0  0  0  0
  1 19  1  0  0  0  0
  1 20  1  0  0  0  0
  1 21  1  0  0  0  0
  2 18  2  0  0  0  0
  2  3  1  0  0  0  0
  3  4  2  0  0  0  0
  3 22  1  0  0  0  0
  4  5  1  0  0  0  0
  4  6  1  0  0  0  0
  5 23  1  0  0  0  0
  5 24  1  0  0  0  0
  5 25  1  0  0  0  0
  6  7  1  0  0  0  0
  6 18  1  0  0  0  0
  7  8  2  0  0  0  0
  7  9  1  0  0  0  0
  9 16  1  0  0  0  0
  9 10  2  0  0  0  0
 10 11  1  0  0  0  0
 10 14  1  0  0  0  0
 11 12  2  0  0  0  0
 11 13  2  0  0  0  0
 14 15  2  0  0  0  0
 14 26  1  0  0  0  0
 15 16  1  0  0  0  0
 16 17  1  0  0  0  0
 17 27  1  0  0  0  0
 17 28  1  0  0  0  0
 17 29  1  0  0  0  0
M  END
$$$$
