ZINC000000055933      none
 OpenBabel11202420153D

 35 37  0  0  0  0  0  0  0  0999 V2000
   33.0925   33.8727   53.7387 N   0  0  0  0  0  0  0  0  0  0  0  0
   33.0093   34.5301   54.6614 C   0  0  0  0  0  0  0  0  0  0  0  0
   32.9045   35.3588   55.8246 C   0  0  0  0  0  0  0  0  0  0  0  0
   33.3398   36.6142   55.7889 N   0  0  0  0  0  0  0  0  0  0  0  0
   33.2393   37.3757   56.8688 C   0  0  0  0  0  0  0  0  0  0  0  0
   33.6111   38.7680   57.1644 C   0  0  0  0  0  0  0  0  0  0  0  0
   34.2234   39.7024   56.2684 C   0  0  0  0  0  0  0  0  0  0  0  0
   34.7091   40.4436   55.5577 N   0  0  0  0  0  0  0  0  0  0  0  0
   33.2497   38.9954   58.4879 C   0  0  0  0  0  0  0  0  0  0  0  0
   33.4240   40.1759   59.1667 N   0  0  0  0  0  0  0  0  0  0  0  0
   32.6965   37.8637   59.0056 N   0  0  0  0  0  0  0  0  0  0  0  0
   32.1980   37.7300   60.3767 C   0  0  0  0  0  0  0  0  0  0  0  0
   31.6519   36.3161   60.5851 C   0  0  0  0  0  0  0  0  0  0  0  0
   31.1391   36.1786   61.9956 C   0  0  0  0  0  0  0  0  0  0  0  0
   31.9849   35.7444   62.9991 C   0  0  0  0  0  0  0  0  0  0  0  0
   31.5159   35.6230   64.2938 C   0  0  0  0  0  0  0  0  0  0  0  0
   30.1985   35.9258   64.5829 C   0  0  0  0  0  0  0  0  0  0  0  0
   29.3512   36.3542   63.5781 C   0  0  0  0  0  0  0  0  0  0  0  0
   29.8216   36.4808   62.2847 C   0  0  0  0  0  0  0  0  0  0  0  0
   32.6767   36.8595   58.0608 C   0  0  0  0  0  0  0  0  0  0  0  0
   32.2395   35.6115   58.0907 N   0  0  0  0  0  0  0  0  0  0  0  0
   32.3393   34.8450   57.0082 C   0  0  0  0  0  0  0  0  0  0  0  0
   31.8700   33.4926   57.0460 C   0  0  0  0  0  0  0  0  0  0  0  0
   31.4977   32.4198   57.0760 N   0  0  0  0  0  0  0  0  0  0  0  0
   33.1431   40.2492   60.0922 H   0  0  0  0  0  0  0  0  0  0  0  0
   33.8283   40.9367   58.7208 H   0  0  0  0  0  0  0  0  0  0  0  0
   31.4025   38.4555   60.5465 H   0  0  0  0  0  0  0  0  0  0  0  0
   33.0119   37.9123   61.0785 H   0  0  0  0  0  0  0  0  0  0  0  0
   30.8380   36.1338   59.8833 H   0  0  0  0  0  0  0  0  0  0  0  0
   32.4473   35.5905   60.4152 H   0  0  0  0  0  0  0  0  0  0  0  0
   33.0130   35.5041   62.7725 H   0  0  0  0  0  0  0  0  0  0  0  0
   32.1778   35.2879   65.0787 H   0  0  0  0  0  0  0  0  0  0  0  0
   29.8310   35.8271   65.5937 H   0  0  0  0  0  0  0  0  0  0  0  0
   28.3218   36.5904   63.8040 H   0  0  0  0  0  0  0  0  0  0  0  0
   29.1596   36.8155   61.4996 H   0  0  0  0  0  0  0  0  0  0  0  0
  1  2  3  0  0  0  0
  2  3  1  0  0  0  0
  3 22  2  0  0  0  0
  3  4  1  0  0  0  0
  4  5  2  0  0  0  0
  5 20  1  0  0  0  0
  5  6  1  0  0  0  0
  6  7  1  0  0  0  0
  6  9  2  0  0  0  0
  7  8  3  0  0  0  0
  9 10  1  0  0  0  0
  9 11  1  0  0  0  0
 10 25  1  0  0  0  0
 10 26  1  0  0  0  0
 11 12  1  0  0  0  0
 11 20  1  0  0  0  0
 12 13  1  0  0  0  0
 12 27  1  0  0  0  0
 12 28  1  0  0  0  0
 13 14  1  0  0  0  0
 13 29  1  0  0  0  0
 13 30  1  0  0  0  0
 14 19  2  0  0  0  0
 14 15  1  0  0  0  0
 15 16  2  0  0  0  0
 15 31  1  0  0  0  0
 16 17  1  0  0  0  0
 16 32  1  0  0  0  0
 17 18  2  0  0  0  0
 17 33  1  0  0  0  0
 18 19  1  0  0  0  0
 18 34  1  0  0  0  0
 19 35  1  0  0  0  0
 20 21  2  0  0  0  0
 21 22  1  0  0  0  0
 22 23  1  0  0  0  0
 23 24  3  0  0  0  0
M  END
$$$$
