ZINC000000032794      none
 OpenBabel11202420153D

 31 31  0  0  0  0  0  0  0  0999 V2000
   29.1409   35.3220   64.9587 C   0  0  0  0  0  0  0  0  0  0  0  0
   30.6500   35.0882   65.0519 C   0  0  0  0  0  0  0  0  0  0  0  0
   31.3486   36.0676   64.2160 N   0  0  0  0  0  0  0  0  0  0  0  0
   31.7603   37.3540   64.7834 C   0  0  0  0  0  0  0  0  0  0  0  0
   33.1698   37.2269   65.3652 C   0  0  0  0  0  0  0  0  0  0  0  0
   31.6124   35.7854   62.9247 C   0  0  0  0  0  0  0  0  0  0  0  0
   31.1312   34.2822   62.2615 S   0  0  0  0  0  0  0  0  0  0  0  0
   32.4524   36.9635   61.9194 S   0  0  0  0  0  0  0  0  0  0  0  0
   31.7440   36.5597   60.3034 C   0  0  0  0  0  0  0  0  0  0  0  0
   32.3334   37.4682   59.2554 C   0  0  0  0  0  0  0  0  0  0  0  0
   32.4661   38.7861   59.4329 C   0  0  0  0  0  0  0  0  0  0  0  0
   33.1940   39.4589   57.9762 S   0  0  0  0  0  0  0  0  0  0  0  0
   33.2401   37.9024   57.2701 C   0  0  0  0  0  0  0  0  0  0  0  0
   33.7706   37.5951   55.8935 C   0  0  0  0  0  0  0  0  0  0  0  0
   32.7549   37.0290   58.0866 N   0  0  0  0  0  0  0  0  0  0  0  0
   28.6212   34.5933   65.5807 H   0  0  0  0  0  0  0  0  0  0  0  0
   28.9071   36.3285   65.3058 H   0  0  0  0  0  0  0  0  0  0  0  0
   28.8193   35.2110   63.9232 H   0  0  0  0  0  0  0  0  0  0  0  0
   30.8839   34.0817   64.7049 H   0  0  0  0  0  0  0  0  0  0  0  0
   30.9716   35.1992   66.0874 H   0  0  0  0  0  0  0  0  0  0  0  0
   31.7572   38.1136   64.0017 H   0  0  0  0  0  0  0  0  0  0  0  0
   31.0660   37.6420   65.5727 H   0  0  0  0  0  0  0  0  0  0  0  0
   33.1730   36.4674   66.1470 H   0  0  0  0  0  0  0  0  0  0  0  0
   33.8642   36.9390   64.5760 H   0  0  0  0  0  0  0  0  0  0  0  0
   33.4761   38.1840   65.7874 H   0  0  0  0  0  0  0  0  0  0  0  0
   30.6631   36.6961   60.3363 H   0  0  0  0  0  0  0  0  0  0  0  0
   31.9722   35.5230   60.0555 H   0  0  0  0  0  0  0  0  0  0  0  0
   32.1794   39.3406   60.3143 H   0  0  0  0  0  0  0  0  0  0  0  0
   32.9617   37.6723   55.1669 H   0  0  0  0  0  0  0  0  0  0  0  0
   34.5562   38.3068   55.6396 H   0  0  0  0  0  0  0  0  0  0  0  0
   34.1774   36.5840   55.8783 H   0  0  0  0  0  0  0  0  0  0  0  0
  1  2  1  0  0  0  0
  1 16  1  0  0  0  0
  1 17  1  0  0  0  0
  1 18  1  0  0  0  0
  2  3  1  0  0  0  0
  2 19  1  0  0  0  0
  2 20  1  0  0  0  0
  3  4  1  0  0  0  0
  3  6  1  0  0  0  0
  4  5  1  0  0  0  0
  4 21  1  0  0  0  0
  4 22  1  0  0  0  0
  5 23  1  0  0  0  0
  5 24  1  0  0  0  0
  5 25  1  0  0  0  0
  6  7  2  0  0  0  0
  6  8  1  0  0  0  0
  8  9  1  0  0  0  0
  9 10  1  0  0  0  0
  9 26  1  0  0  0  0
  9 27  1  0  0  0  0
 10 15  1  0  0  0  0
 10 11  2  0  0  0  0
 11 12  1  0  0  0  0
 11 28  1  0  0  0  0
 12 13  1  0  0  0  0
 13 14  1  0  0  0  0
 13 15  2  0  0  0  0
 14 29  1  0  0  0  0
 14 30  1  0  0  0  0
 14 31  1  0  0  0  0
M  END
$$$$
