ZINC000000040601      none
 OpenBabel11202420153D

 27 28  0  0  1  0  0  0  0  0999 V2000
   31.5631   36.1281   63.3048 C   0  0  0  0  0  0  0  0  0  0  0  0
   30.6621   35.7030   62.4543 C   0  0  0  0  0  0  0  0  0  0  0  0
   30.9186   35.8015   60.9725 C   0  0  1  0  0  0  0  0  0  0  0  0
   30.8933   34.8046   60.5324 H   0  0  0  0  0  0  0  0  0  0  0  0
   29.8403   36.6724   60.3250 C   0  0  0  0  0  0  0  0  0  0  0  0
   32.2023   36.3883   60.7495 O   0  0  0  0  0  0  0  0  0  0  0  0
   32.5425   36.5267   59.3819 N   0  0  0  0  0  0  0  0  0  0  0  0
   32.6403   35.5032   58.5144 C   0  0  0  0  0  0  0  0  0  0  0  0
   32.4532   34.3321   58.7759 O   0  0  0  0  0  0  0  0  0  0  0  0
   33.0106   36.0429   57.1890 C   0  0  0  0  0  0  0  0  0  0  0  0
   33.2436   35.4787   55.9451 C   0  0  0  0  0  0  0  0  0  0  0  0
   33.5889   36.2907   54.8760 C   0  0  0  0  0  0  0  0  0  0  0  0
   33.7014   37.6582   55.0425 C   0  0  0  0  0  0  0  0  0  0  0  0
   33.4709   38.2367   56.2810 C   0  0  0  0  0  0  0  0  0  0  0  0
   33.1255   37.4374   57.3588 C   0  0  0  0  0  0  0  0  0  0  0  0
   32.8161   37.6986   58.7805 C   0  0  0  0  0  0  0  0  0  0  0  0
   32.8096   38.7886   59.3158 O   0  0  0  0  0  0  0  0  0  0  0  0
   31.3793   36.0573   64.3667 H   0  0  0  0  0  0  0  0  0  0  0  0
   32.4918   36.5451   62.9442 H   0  0  0  0  0  0  0  0  0  0  0  0
   29.7353   35.2818   62.8150 H   0  0  0  0  0  0  0  0  0  0  0  0
   29.8655   37.6693   60.7651 H   0  0  0  0  0  0  0  0  0  0  0  0
   30.0259   36.7436   59.2532 H   0  0  0  0  0  0  0  0  0  0  0  0
   28.8612   36.2248   60.4951 H   0  0  0  0  0  0  0  0  0  0  0  0
   33.1571   34.4108   55.8092 H   0  0  0  0  0  0  0  0  0  0  0  0
   33.7709   35.8518   53.9062 H   0  0  0  0  0  0  0  0  0  0  0  0
   33.9704   38.2805   54.2018 H   0  0  0  0  0  0  0  0  0  0  0  0
   33.5607   39.3057   56.4053 H   0  0  0  0  0  0  0  0  0  0  0  0
  1  2  2  0  0  0  0
  1 18  1  0  0  0  0
  1 19  1  0  0  0  0
  2  3  1  0  0  0  0
  2 20  1  0  0  0  0
  3  4  1  6  0  0  0
  3  5  1  0  0  0  0
  3  6  1  0  0  0  0
  5 21  1  0  0  0  0
  5 22  1  0  0  0  0
  5 23  1  0  0  0  0
  6  7  1  0  0  0  0
  7 16  1  0  0  0  0
  7  8  1  0  0  0  0
  8  9  2  0  0  0  0
  8 10  1  0  0  0  0
 10 15  2  0  0  0  0
 10 11  1  0  0  0  0
 11 12  2  0  0  0  0
 11 24  1  0  0  0  0
 12 13  1  0  0  0  0
 12 25  1  0  0  0  0
 13 14  2  0  0  0  0
 13 26  1  0  0  0  0
 14 15  1  0  0  0  0
 14 27  1  0  0  0  0
 15 16  1  0  0  0  0
 16 17  2  0  0  0  0
M  END
$$$$
