ZINC000000053788      none
 OpenBabel11202420153D

 31 33  0  0  1  0  0  0  0  0999 V2000
   32.5434   40.5676   57.5463 O   0  0  0  0  0  0  0  0  0  0  0  0
   32.6389   39.3757   57.3181 C   0  0  0  0  0  0  0  0  0  0  0  0
   32.3692   38.4253   58.3284 C   0  0  0  0  0  0  0  0  0  0  0  0
   32.4906   37.0980   58.0412 C   0  0  0  0  0  0  0  0  0  0  0  0
   32.2261   36.0828   59.0789 C   0  0  0  0  0  0  0  0  0  0  0  0
   32.3571   34.7241   58.7808 C   0  0  0  0  0  0  0  0  0  0  0  0
   32.1031   33.7804   59.7536 C   0  0  0  0  0  0  0  0  0  0  0  0
   31.7298   34.1771   61.0269 C   0  0  0  0  0  0  0  0  0  0  0  0
   31.3910   32.8761   62.3567 Br  0  0  0  0  0  0  0  0  0  0  0  0
   31.6032   35.5226   61.3304 C   0  0  0  0  0  0  0  0  0  0  0  0
   31.8488   36.4764   60.3654 C   0  0  0  0  0  0  0  0  0  0  0  0
   32.8512   36.7215   56.7906 O   0  0  0  0  0  0  0  0  0  0  0  0
   33.6494   37.6565   56.0548 C   0  0  1  0  0  0  0  0  0  0  0  0
   34.6364   37.7338   56.5108 H   0  0  0  0  0  0  0  0  0  0  0  0
   33.7863   37.1922   54.6276 C   0  0  0  0  0  0  0  0  0  0  0  0
   34.9195   37.5107   53.9028 C   0  0  0  0  0  0  0  0  0  0  0  0
   35.0471   37.0809   52.5952 C   0  0  0  0  0  0  0  0  0  0  0  0
   34.0369   36.3405   52.0093 C   0  0  0  0  0  0  0  0  0  0  0  0
   32.9015   36.0273   52.7322 C   0  0  0  0  0  0  0  0  0  0  0  0
   32.7761   36.4527   54.0415 C   0  0  0  0  0  0  0  0  0  0  0  0
   33.0017   38.9350   56.0890 O   0  0  0  0  0  0  0  0  0  0  0  0
   32.0739   38.7463   59.3165 H   0  0  0  0  0  0  0  0  0  0  0  0
   32.6524   34.4135   57.7894 H   0  0  0  0  0  0  0  0  0  0  0  0
   32.1997   32.7297   59.5233 H   0  0  0  0  0  0  0  0  0  0  0  0
   31.3119   35.8253   62.3254 H   0  0  0  0  0  0  0  0  0  0  0  0
   31.7500   37.5250   60.6035 H   0  0  0  0  0  0  0  0  0  0  0  0
   35.7067   38.0924   54.3594 H   0  0  0  0  0  0  0  0  0  0  0  0
   35.9343   37.3263   52.0302 H   0  0  0  0  0  0  0  0  0  0  0  0
   34.1349   36.0078   50.9866 H   0  0  0  0  0  0  0  0  0  0  0  0
   32.1122   35.4494   52.2742 H   0  0  0  0  0  0  0  0  0  0  0  0
   31.8888   36.2076   54.6063 H   0  0  0  0  0  0  0  0  0  0  0  0
  1  2  2  0  0  0  0
  2 21  1  0  0  0  0
  2  3  1  0  0  0  0
  3  4  2  0  0  0  0
  3 22  1  0  0  0  0
  4  5  1  0  0  0  0
  4 12  1  0  0  0  0
  5 11  2  0  0  0  0
  5  6  1  0  0  0  0
  6  7  2  0  0  0  0
  6 23  1  0  0  0  0
  7  8  1  0  0  0  0
  7 24  1  0  0  0  0
  8  9  1  0  0  0  0
  8 10  2  0  0  0  0
 10 11  1  0  0  0  0
 10 25  1  0  0  0  0
 11 26  1  0  0  0  0
 12 13  1  0  0  0  0
 13 14  1  1  0  0  0
 13 15  1  0  0  0  0
 13 21  1  0  0  0  0
 15 20  2  0  0  0  0
 15 16  1  0  0  0  0
 16 17  2  0  0  0  0
 16 27  1  0  0  0  0
 17 18  1  0  0  0  0
 17 28  1  0  0  0  0
 18 19  2  0  0  0  0
 18 29  1  0  0  0  0
 19 20  1  0  0  0  0
 19 30  1  0  0  0  0
 20 31  1  0  0  0  0
M  END
$$$$
