ZINC000000004541      none
 OpenBabel11202420153D

 33 34  0  0  0  0  0  0  0  0999 V2000
   31.4291   34.6113   59.5472 C   0  0  0  0  0  0  0  0  0  0  0  0
   31.0822   35.4398   60.7574 C   0  0  0  0  0  0  0  0  0  0  0  0
   31.0118   36.7743   60.6580 C   0  0  0  0  0  0  0  0  0  0  0  0
   31.2800   37.4466   59.3362 C   0  0  0  0  0  0  0  0  0  0  0  0
   30.6663   37.5859   61.8428 C   0  0  0  0  0  0  0  0  0  0  0  0
   30.5984   38.7950   61.7518 O   0  0  0  0  0  0  0  0  0  0  0  0
   30.4089   36.9273   63.1397 C   0  0  0  0  0  0  0  0  0  0  0  0
   30.0616   37.7557   64.3497 C   0  0  0  0  0  0  0  0  0  0  0  0
   31.3250   38.1344   65.0789 C   0  0  0  0  0  0  0  0  0  0  0  0
   32.4329   37.3012   65.0426 C   0  0  0  0  0  0  0  0  0  0  0  0
   33.5735   37.6900   65.7282 C   0  0  0  0  0  0  0  0  0  0  0  0
   33.5683   38.8867   66.4200 C   0  0  0  0  0  0  0  0  0  0  0  0
   32.4959   39.6539   66.4326 N   0  0  0  0  0  0  0  0  0  0  0  0
   31.3957   39.3187   65.7872 C   0  0  0  0  0  0  0  0  0  0  0  0
   30.4789   35.5927   63.2390 C   0  0  0  0  0  0  0  0  0  0  0  0
   30.2108   34.9204   64.5607 C   0  0  0  0  0  0  0  0  0  0  0  0
   30.8194   34.7808   62.0529 C   0  0  0  0  0  0  0  0  0  0  0  0
   30.8835   33.5713   62.1431 O   0  0  0  0  0  0  0  0  0  0  0  0
   31.4380   33.5559   59.8199 H   0  0  0  0  0  0  0  0  0  0  0  0
   30.6863   34.7788   58.7673 H   0  0  0  0  0  0  0  0  0  0  0  0
   32.4137   34.8999   59.1794 H   0  0  0  0  0  0  0  0  0  0  0  0
   30.3475   37.5384   58.7794 H   0  0  0  0  0  0  0  0  0  0  0  0
   31.6979   38.4381   59.5110 H   0  0  0  0  0  0  0  0  0  0  0  0
   31.9887   36.8497   58.7622 H   0  0  0  0  0  0  0  0  0  0  0  0
   29.4185   37.1776   65.0134 H   0  0  0  0  0  0  0  0  0  0  0  0
   29.5397   38.6589   64.0340 H   0  0  0  0  0  0  0  0  0  0  0  0
   32.4081   36.3718   64.4931 H   0  0  0  0  0  0  0  0  0  0  0  0
   34.4550   37.0661   65.7214 H   0  0  0  0  0  0  0  0  0  0  0  0
   34.4526   39.1966   66.9570 H   0  0  0  0  0  0  0  0  0  0  0  0
   30.5389   39.9753   65.8163 H   0  0  0  0  0  0  0  0  0  0  0  0
   29.1376   34.7740   64.6828 H   0  0  0  0  0  0  0  0  0  0  0  0
   30.7144   33.9540   64.5856 H   0  0  0  0  0  0  0  0  0  0  0  0
   30.5864   35.5467   65.3699 H   0  0  0  0  0  0  0  0  0  0  0  0
  1  2  1  0  0  0  0
  1 19  1  0  0  0  0
  1 20  1  0  0  0  0
  1 21  1  0  0  0  0
  2 17  1  0  0  0  0
  2  3  2  0  0  0  0
  3  4  1  0  0  0  0
  3  5  1  0  0  0  0
  4 22  1  0  0  0  0
  4 23  1  0  0  0  0
  4 24  1  0  0  0  0
  5  6  2  0  0  0  0
  5  7  1  0  0  0  0
  7  8  1  0  0  0  0
  7 15  2  0  0  0  0
  8  9  1  0  0  0  0
  8 25  1  0  0  0  0
  8 26  1  0  0  0  0
  9 14  2  0  0  0  0
  9 10  1  0  0  0  0
 10 11  2  0  0  0  0
 10 27  1  0  0  0  0
 11 12  1  0  0  0  0
 11 28  1  0  0  0  0
 12 13  2  0  0  0  0
 12 29  1  0  0  0  0
 13 14  1  0  0  0  0
 14 30  1  0  0  0  0
 15 16  1  0  0  0  0
 15 17  1  0  0  0  0
 16 31  1  0  0  0  0
 16 32  1  0  0  0  0
 16 33  1  0  0  0  0
 17 18  2  0  0  0  0
M  END
$$$$
