ZINC000000035206      none
 OpenBabel11202420153D

 46 48  0  0  1  0  0  0  0  0999 V2000
   33.9081   39.5191   67.0304 C   0  0  0  0  0  0  0  0  0  0  0  0
   32.8080   38.9835   66.2925 O   0  0  0  0  0  0  0  0  0  0  0  0
   32.9987   37.7932   65.6857 C   0  0  0  0  0  0  0  0  0  0  0  0
   34.0712   37.2263   65.7815 O   0  0  0  0  0  0  0  0  0  0  0  0
   31.9522   37.2046   64.9386 C   0  0  0  0  0  0  0  0  0  0  0  0
   31.8427   37.4829   63.6282 C   0  0  0  0  0  0  0  0  0  0  0  0
   30.8471   36.9242   62.8739 N   0  0  0  0  0  0  0  0  0  0  0  0
   30.4932   37.5147   61.5807 C   0  0  0  0  0  0  0  0  0  0  0  0
   30.4407   36.5820   60.3690 C   0  0  0  0  0  0  0  0  0  0  0  0
   31.5873   37.5858   60.5135 C   0  0  0  0  0  0  0  0  0  0  0  0
   30.1767   35.8199   63.3247 C   0  0  0  0  0  0  0  0  0  0  0  0
   30.2160   35.4729   64.6227 C   0  0  0  0  0  0  0  0  0  0  0  0
   29.5180   34.3205   65.0521 C   0  0  0  0  0  0  0  0  0  0  0  0
   29.9290   33.6784   66.0005 O   0  0  0  0  0  0  0  0  0  0  0  0
   28.3961   33.9328   64.4101 O   0  0  0  0  0  0  0  0  0  0  0  0
   27.7422   32.7593   64.8975 C   0  0  0  0  0  0  0  0  0  0  0  0
   30.9863   36.2823   65.6270 C   0  0  2  0  0  0  0  0  0  0  0  0
   30.0232   37.0975   66.4510 C   0  0  0  0  0  0  0  0  0  0  0  0
   29.2149   38.0380   65.8392 C   0  0  0  0  0  0  0  0  0  0  0  0
   28.3263   38.7835   66.5916 C   0  0  0  0  0  0  0  0  0  0  0  0
   28.2519   38.5982   67.9588 C   0  0  0  0  0  0  0  0  0  0  0  0
   29.0658   37.6595   68.5755 C   0  0  0  0  0  0  0  0  0  0  0  0
   28.9949   37.4758   69.9202 O   0  0  0  0  0  0  0  0  0  0  0  0
   28.0594   38.2840   70.6370 C   0  0  0  0  0  0  0  0  0  0  0  0
   29.9528   36.9086   67.8174 C   0  0  0  0  0  0  0  0  0  0  0  0
   34.7576   39.6635   66.3627 H   0  0  0  0  0  0  0  0  0  0  0  0
   33.6218   40.4763   67.4662 H   0  0  0  0  0  0  0  0  0  0  0  0
   34.1844   38.8261   67.8252 H   0  0  0  0  0  0  0  0  0  0  0  0
   32.5493   38.1553   63.1648 H   0  0  0  0  0  0  0  0  0  0  0  0
   29.7729   38.3319   61.6184 H   0  0  0  0  0  0  0  0  0  0  0  0
   30.6694   35.5291   60.5340 H   0  0  0  0  0  0  0  0  0  0  0  0
   29.6861   36.7859   59.6093 H   0  0  0  0  0  0  0  0  0  0  0  0
   31.5865   38.4498   59.8489 H   0  0  0  0  0  0  0  0  0  0  0  0
   32.5703   37.1934   60.7735 H   0  0  0  0  0  0  0  0  0  0  0  0
   29.6086   35.2200   62.6292 H   0  0  0  0  0  0  0  0  0  0  0  0
   27.4476   32.9124   65.9356 H   0  0  0  0  0  0  0  0  0  0  0  0
   26.8567   32.5596   64.2941 H   0  0  0  0  0  0  0  0  0  0  0  0
   28.4237   31.9110   64.8344 H   0  0  0  0  0  0  0  0  0  0  0  0
   31.5383   35.6092   66.2830 H   0  0  0  0  0  0  0  0  0  0  0  0
   29.2749   38.1876   64.7713 H   0  0  0  0  0  0  0  0  0  0  0  0
   27.6931   39.5145   66.1109 H   0  0  0  0  0  0  0  0  0  0  0  0
   27.5605   39.1837   68.5466 H   0  0  0  0  0  0  0  0  0  0  0  0
   27.0535   38.0947   70.2620 H   0  0  0  0  0  0  0  0  0  0  0  0
   28.1041   38.0374   71.6977 H   0  0  0  0  0  0  0  0  0  0  0  0
   28.3069   39.3363   70.4977 H   0  0  0  0  0  0  0  0  0  0  0  0
   30.5872   36.1768   68.2953 H   0  0  0  0  0  0  0  0  0  0  0  0
  1  2  1  0  0  0  0
  1 26  1  0  0  0  0
  1 27  1  0  0  0  0
  1 28  1  0  0  0  0
  2  3  1  0  0  0  0
  3  4  2  0  0  0  0
  3  5  1  0  0  0  0
  5 17  1  0  0  0  0
  5  6  2  0  0  0  0
  6  7  1  0  0  0  0
  6 29  1  0  0  0  0
  7  8  1  0  0  0  0
  7 11  1  0  0  0  0
  8 10  1  0  0  0  0
  8  9  1  0  0  0  0
  8 30  1  0  0  0  0
  9 10  1  0  0  0  0
  9 31  1  0  0  0  0
  9 32  1  0  0  0  0
 10 33  1  0  0  0  0
 10 34  1  0  0  0  0
 11 12  2  0  0  0  0
 11 35  1  0  0  0  0
 12 13  1  0  0  0  0
 12 17  1  0  0  0  0
 13 14  2  0  0  0  0
 13 15  1  0  0  0  0
 15 16  1  0  0  0  0
 16 36  1  0  0  0  0
 16 37  1  0  0  0  0
 16 38  1  0  0  0  0
 17 18  1  0  0  0  0
 17 39  1  1  0  0  0
 18 25  2  0  0  0  0
 18 19  1  0  0  0  0
 19 20  2  0  0  0  0
 19 40  1  0  0  0  0
 20 21  1  0  0  0  0
 20 41  1  0  0  0  0
 21 22  2  0  0  0  0
 21 42  1  0  0  0  0
 22 23  1  0  0  0  0
 22 25  1  0  0  0  0
 23 24  1  0  0  0  0
 24 43  1  0  0  0  0
 24 44  1  0  0  0  0
 24 45  1  0  0  0  0
 25 46  1  0  0  0  0
M  END
$$$$
