ZINC000000053812      none
 OpenBabel11202420153D

 41 44  0  0  0  0  0  0  0  0999 V2000
   31.5767   40.6626   67.1106 C   0  0  0  0  0  0  0  0  0  0  0  0
   32.4487   39.5508   66.8966 O   0  0  0  0  0  0  0  0  0  0  0  0
   32.2949   38.8607   65.7363 C   0  0  0  0  0  0  0  0  0  0  0  0
   33.1101   37.7691   65.4667 C   0  0  0  0  0  0  0  0  0  0  0  0
   32.9575   37.0664   64.2910 C   0  0  0  0  0  0  0  0  0  0  0  0
   31.9810   37.4530   63.3702 C   0  0  0  0  0  0  0  0  0  0  0  0
   31.8142   36.7033   62.1090 C   0  0  0  0  0  0  0  0  0  0  0  0
   31.0004   35.6303   61.9059 C   0  0  0  0  0  0  0  0  0  0  0  0
   31.1374   35.2512   60.6320 N   0  0  0  0  0  0  0  0  0  0  0  0
   32.0094   36.0414   60.0446 C   0  0  0  0  0  0  0  0  0  0  0  0
   32.4388   35.9495   58.6393 C   0  0  0  0  0  0  0  0  0  0  0  0
   32.4489   34.7278   57.9581 C   0  0  0  0  0  0  0  0  0  0  0  0
   32.0689   33.5874   58.5897 O   0  0  0  0  0  0  0  0  0  0  0  0
   32.8651   34.6909   56.6276 C   0  0  0  0  0  0  0  0  0  0  0  0
   32.8837   33.3655   55.9105 C   0  0  0  0  0  0  0  0  0  0  0  0
   33.2399   35.7638   55.9776 N   0  0  0  0  0  0  0  0  0  0  0  0
   33.2528   36.9763   56.5394 C   0  0  0  0  0  0  0  0  0  0  0  0
   33.6602   38.1091   55.8127 C   0  0  0  0  0  0  0  0  0  0  0  0
   33.6566   39.3321   56.4107 C   0  0  0  0  0  0  0  0  0  0  0  0
   33.2604   39.4828   57.7374 C   0  0  0  0  0  0  0  0  0  0  0  0
   32.8641   38.4060   58.4740 C   0  0  0  0  0  0  0  0  0  0  0  0
   32.8556   37.1349   57.8895 C   0  0  0  0  0  0  0  0  0  0  0  0
   32.4405   36.9513   60.9376 O   0  0  0  0  0  0  0  0  0  0  0  0
   31.1665   38.5545   63.6432 C   0  0  0  0  0  0  0  0  0  0  0  0
   31.3227   39.2487   64.8236 C   0  0  0  0  0  0  0  0  0  0  0  0
   30.5424   40.3187   67.1093 H   0  0  0  0  0  0  0  0  0  0  0  0
   31.8050   41.1237   68.0715 H   0  0  0  0  0  0  0  0  0  0  0  0
   31.7175   41.3936   66.3142 H   0  0  0  0  0  0  0  0  0  0  0  0
   33.8648   37.4709   66.1792 H   0  0  0  0  0  0  0  0  0  0  0  0
   33.5919   36.2176   64.0821 H   0  0  0  0  0  0  0  0  0  0  0  0
   30.3559   35.1715   62.6412 H   0  0  0  0  0  0  0  0  0  0  0  0
   31.8068   33.7169   59.5115 H   0  0  0  0  0  0  0  0  0  0  0  0
   33.8569   32.8935   56.0445 H   0  0  0  0  0  0  0  0  0  0  0  0
   32.1071   32.7198   56.3204 H   0  0  0  0  0  0  0  0  0  0  0  0
   32.7003   33.5248   54.8479 H   0  0  0  0  0  0  0  0  0  0  0  0
   33.9703   38.0100   54.7829 H   0  0  0  0  0  0  0  0  0  0  0  0
   33.9664   40.1998   55.8471 H   0  0  0  0  0  0  0  0  0  0  0  0
   33.2675   40.4642   58.1881 H   0  0  0  0  0  0  0  0  0  0  0  0
   32.5584   38.5335   59.5020 H   0  0  0  0  0  0  0  0  0  0  0  0
   30.4131   38.8596   62.9319 H   0  0  0  0  0  0  0  0  0  0  0  0
   30.6908   40.0982   65.0372 H   0  0  0  0  0  0  0  0  0  0  0  0
  1  2  1  0  0  0  0
  1 26  1  0  0  0  0
  1 27  1  0  0  0  0
  1 28  1  0  0  0  0
  2  3  1  0  0  0  0
  3 25  2  0  0  0  0
  3  4  1  0  0  0  0
  4  5  2  0  0  0  0
  4 29  1  0  0  0  0
  5  6  1  0  0  0  0
  5 30  1  0  0  0  0
  6  7  1  0  0  0  0
  6 24  2  0  0  0  0
  7 23  1  0  0  0  0
  7  8  2  0  0  0  0
  8  9  1  0  0  0  0
  8 31  1  0  0  0  0
  9 10  2  0  0  0  0
 10 11  1  0  0  0  0
 10 23  1  0  0  0  0
 11 22  2  0  0  0  0
 11 12  1  0  0  0  0
 12 13  1  0  0  0  0
 12 14  2  0  0  0  0
 13 32  1  0  0  0  0
 14 15  1  0  0  0  0
 14 16  1  0  0  0  0
 15 33  1  0  0  0  0
 15 34  1  0  0  0  0
 15 35  1  0  0  0  0
 16 17  2  0  0  0  0
 17 22  1  0  0  0  0
 17 18  1  0  0  0  0
 18 19  2  0  0  0  0
 18 36  1  0  0  0  0
 19 20  1  0  0  0  0
 19 37  1  0  0  0  0
 20 21  2  0  0  0  0
 20 38  1  0  0  0  0
 21 22  1  0  0  0  0
 21 39  1  0  0  0  0
 24 25  1  0  0  0  0
 24 40  1  0  0  0  0
 25 41  1  0  0  0  0
M  END
$$$$
