ZINC000000039303      none
 OpenBabel11202420153D

 32 34  0  0  0  0  0  0  0  0999 V2000
   35.0838   31.9943   55.4584 C   0  0  0  0  0  0  0  0  0  0  0  0
   34.0242   32.7916   54.9257 O   0  0  0  0  0  0  0  0  0  0  0  0
   33.9097   34.0604   55.3977 C   0  0  0  0  0  0  0  0  0  0  0  0
   34.5821   35.0981   54.7589 C   0  0  0  0  0  0  0  0  0  0  0  0
   34.4763   36.3795   55.2216 C   0  0  0  0  0  0  0  0  0  0  0  0
   33.6899   36.6502   56.3418 C   0  0  0  0  0  0  0  0  0  0  0  0
   33.5534   38.0211   56.8690 C   0  0  0  0  0  0  0  0  0  0  0  0
   34.1229   38.9626   56.3421 O   0  0  0  0  0  0  0  0  0  0  0  0
   32.7353   38.2012   58.0096 C   0  0  0  0  0  0  0  0  0  0  0  0
   32.1169   37.1265   58.5678 C   0  0  0  0  0  0  0  0  0  0  0  0
   31.2674   37.3352   59.7577 C   0  0  0  0  0  0  0  0  0  0  0  0
   30.1695   36.5041   59.9902 C   0  0  0  0  0  0  0  0  0  0  0  0
   29.3834   36.7015   61.1064 C   0  0  0  0  0  0  0  0  0  0  0  0
   29.6742   37.7269   61.9887 C   0  0  0  0  0  0  0  0  0  0  0  0
   30.7571   38.5577   61.7614 C   0  0  0  0  0  0  0  0  0  0  0  0
   31.5550   38.3682   60.6524 C   0  0  0  0  0  0  0  0  0  0  0  0
   32.2491   35.8837   58.0793 O   0  0  0  0  0  0  0  0  0  0  0  0
   33.0067   35.6115   56.9957 C   0  0  0  0  0  0  0  0  0  0  0  0
   33.1183   34.3125   56.5102 C   0  0  0  0  0  0  0  0  0  0  0  0
   32.4597   33.2933   57.1261 O   0  0  0  0  0  0  0  0  0  0  0  0
   35.0622   31.0065   54.9978 H   0  0  0  0  0  0  0  0  0  0  0  0
   34.9574   31.8954   56.5365 H   0  0  0  0  0  0  0  0  0  0  0  0
   36.0401   32.4728   55.2470 H   0  0  0  0  0  0  0  0  0  0  0  0
   35.1910   34.8893   53.8917 H   0  0  0  0  0  0  0  0  0  0  0  0
   34.9998   37.1808   54.7213 H   0  0  0  0  0  0  0  0  0  0  0  0
   32.6034   39.1856   58.4341 H   0  0  0  0  0  0  0  0  0  0  0  0
   29.9389   35.7061   59.2999 H   0  0  0  0  0  0  0  0  0  0  0  0
   28.5367   36.0567   61.2898 H   0  0  0  0  0  0  0  0  0  0  0  0
   29.0528   37.8798   62.8587 H   0  0  0  0  0  0  0  0  0  0  0  0
   30.9784   39.3562   62.4542 H   0  0  0  0  0  0  0  0  0  0  0  0
   32.4004   39.0170   60.4765 H   0  0  0  0  0  0  0  0  0  0  0  0
   32.6032   32.4286   56.7178 H   0  0  0  0  0  0  0  0  0  0  0  0
  1  2  1  0  0  0  0
  1 21  1  0  0  0  0
  1 22  1  0  0  0  0
  1 23  1  0  0  0  0
  2  3  1  0  0  0  0
  3 19  2  0  0  0  0
  3  4  1  0  0  0  0
  4  5  2  0  0  0  0
  4 24  1  0  0  0  0
  5  6  1  0  0  0  0
  5 25  1  0  0  0  0
  6 18  2  0  0  0  0
  6  7  1  0  0  0  0
  7  8  2  0  0  0  0
  7  9  1  0  0  0  0
  9 10  2  0  0  0  0
  9 26  1  0  0  0  0
 10 11  1  0  0  0  0
 10 17  1  0  0  0  0
 11 16  2  0  0  0  0
 11 12  1  0  0  0  0
 12 13  2  0  0  0  0
 12 27  1  0  0  0  0
 13 14  1  0  0  0  0
 13 28  1  0  0  0  0
 14 15  2  0  0  0  0
 14 29  1  0  0  0  0
 15 16  1  0  0  0  0
 15 30  1  0  0  0  0
 16 31  1  0  0  0  0
 17 18  1  0  0  0  0
 18 19  1  0  0  0  0
 19 20  1  0  0  0  0
 20 32  1  0  0  0  0
M  END
$$$$
