ZINC000000033155      none
 OpenBabel11202420153D

 34 36  0  0  0  0  0  0  0  0999 V2000
   33.6124   40.2047   59.1166 C   0  0  0  0  0  0  0  0  0  0  0  0
   33.3887   39.1461   58.0675 C   0  0  0  0  0  0  0  0  0  0  0  0
   33.8796   39.2123   56.8831 N   0  0  0  0  0  0  0  0  0  0  0  0
   33.6193   38.2254   56.0421 C   0  0  0  0  0  0  0  0  0  0  0  0
   34.0713   38.1638   54.7604 N   0  0  0  0  0  0  0  0  0  0  0  0
   34.8413   39.1546   54.2689 C   0  0  0  0  0  0  0  0  0  0  0  0
   35.1321   40.1030   54.9705 O   0  0  0  0  0  0  0  0  0  0  0  0
   35.3322   39.0876   52.8769 C   0  0  0  0  0  0  0  0  0  0  0  0
   35.5106   37.8502   52.2551 C   0  0  0  0  0  0  0  0  0  0  0  0
   35.9636   37.7951   50.9533 C   0  0  0  0  0  0  0  0  0  0  0  0
   36.2519   38.9620   50.2678 C   0  0  0  0  0  0  0  0  0  0  0  0
   36.0828   40.1914   50.8800 C   0  0  0  0  0  0  0  0  0  0  0  0
   35.6250   40.2612   52.1792 C   0  0  0  0  0  0  0  0  0  0  0  0
   32.6089   37.0037   56.8045 S   0  0  0  0  0  0  0  0  0  0  0  0
   32.5935   37.9352   58.3011 C   0  0  0  0  0  0  0  0  0  0  0  0
   31.9495   37.5896   59.4770 C   0  0  0  0  0  0  0  0  0  0  0  0
   31.6835   36.2311   59.9620 C   0  0  0  0  0  0  0  0  0  0  0  0
   31.0324   36.3808   61.1574 C   0  0  0  0  0  0  0  0  0  0  0  0
   30.8937   37.7399   61.3961 C   0  0  0  0  0  0  0  0  0  0  0  0
   30.2373   38.3294   62.5850 N   0  0  0  0  0  0  0  0  0  0  0  0
   29.7314   37.5452   63.5143 O   0  0  0  0  0  0  0  0  0  0  0  0
   30.1595   39.6378   62.7135 O   0  0  0  0  0  0  0  0  0  0  0  0
   31.4388   38.4398   60.3975 O   0  0  0  0  0  0  0  0  0  0  0  0
   32.8250   40.9554   59.0489 H   0  0  0  0  0  0  0  0  0  0  0  0
   33.5931   39.7462   60.1053 H   0  0  0  0  0  0  0  0  0  0  0  0
   34.5807   40.6781   58.9544 H   0  0  0  0  0  0  0  0  0  0  0  0
   33.8392   37.4066   54.2001 H   0  0  0  0  0  0  0  0  0  0  0  0
   35.2901   36.9385   52.7904 H   0  0  0  0  0  0  0  0  0  0  0  0
   36.0975   36.8388   50.4695 H   0  0  0  0  0  0  0  0  0  0  0  0
   36.6109   38.9130   49.2504 H   0  0  0  0  0  0  0  0  0  0  0  0
   36.3100   41.0983   50.3394 H   0  0  0  0  0  0  0  0  0  0  0  0
   35.4937   41.2213   52.6560 H   0  0  0  0  0  0  0  0  0  0  0  0
   31.9487   35.3033   59.4771 H   0  0  0  0  0  0  0  0  0  0  0  0
   30.6849   35.5834   61.7975 H   0  0  0  0  0  0  0  0  0  0  0  0
  1  2  1  0  0  0  0
  1 24  1  0  0  0  0
  1 25  1  0  0  0  0
  1 26  1  0  0  0  0
  2 15  2  0  0  0  0
  2  3  1  0  0  0  0
  3  4  2  0  0  0  0
  4  5  1  0  0  0  0
  4 14  1  0  0  0  0
  5  6  1  0  0  0  0
  5 27  1  0  0  0  0
  6  7  2  0  0  0  0
  6  8  1  0  0  0  0
  8 13  2  0  0  0  0
  8  9  1  0  0  0  0
  9 10  2  0  0  0  0
  9 28  1  0  0  0  0
 10 11  1  0  0  0  0
 10 29  1  0  0  0  0
 11 12  2  0  0  0  0
 11 30  1  0  0  0  0
 12 13  1  0  0  0  0
 12 31  1  0  0  0  0
 13 32  1  0  0  0  0
 14 15  1  0  0  0  0
 15 16  1  0  0  0  0
 16 23  1  0  0  0  0
 16 17  2  0  0  0  0
 17 18  1  0  0  0  0
 17 33  1  0  0  0  0
 18 19  2  0  0  0  0
 18 34  1  0  0  0  0
 19 20  1  0  0  0  0
 19 23  1  0  0  0  0
 20 21  2  0  0  0  0
 20 22  2  0  0  0  0
M  END
$$$$
