ZINC000000027354      none
 OpenBabel11202420153D

 32 34  0  0  0  0  0  0  0  0999 V2000
   33.8078   32.6278   52.4000 F   0  0  0  0  0  0  0  0  0  0  0  0
   33.5730   33.2442   53.5792 C   0  0  0  0  0  0  0  0  0  0  0  0
   32.6519   34.2770   53.6472 C   0  0  0  0  0  0  0  0  0  0  0  0
   32.4094   34.9097   54.8491 C   0  0  0  0  0  0  0  0  0  0  0  0
   33.0922   34.5080   55.9959 C   0  0  0  0  0  0  0  0  0  0  0  0
   32.8351   35.1853   57.2900 C   0  0  0  0  0  0  0  0  0  0  0  0
   32.3824   34.6161   58.3857 N   0  0  0  0  0  0  0  0  0  0  0  0
   32.2817   35.5936   59.3829 N   0  0  0  0  0  0  0  0  0  0  0  0
   31.9762   35.4473   60.2918 H   0  0  0  0  0  0  0  0  0  0  0  0
   32.6759   36.7746   58.8636 C   0  0  0  0  0  0  0  0  0  0  0  0
   33.0278   36.5626   57.5644 C   0  0  0  0  0  0  0  0  0  0  0  0
   33.5222   37.5864   56.6109 C   0  0  0  0  0  0  0  0  0  0  0  0
   33.1049   38.9108   56.7291 C   0  0  0  0  0  0  0  0  0  0  0  0
   33.5724   39.8608   55.8443 C   0  0  0  0  0  0  0  0  0  0  0  0
   34.4454   39.4969   54.8312 C   0  0  0  0  0  0  0  0  0  0  0  0
   34.8959   40.4288   53.9630 F   0  0  0  0  0  0  0  0  0  0  0  0
   34.8581   38.1810   54.7069 C   0  0  0  0  0  0  0  0  0  0  0  0
   35.8082   37.7917   53.6039 C   0  0  0  0  0  0  0  0  0  0  0  0
   36.1280   38.9214   52.8433 F   0  0  0  0  0  0  0  0  0  0  0  0
   36.9756   37.2584   54.1605 F   0  0  0  0  0  0  0  0  0  0  0  0
   35.2028   36.8334   52.7837 F   0  0  0  0  0  0  0  0  0  0  0  0
   34.4007   37.2254   55.5915 C   0  0  0  0  0  0  0  0  0  0  0  0
   34.0213   33.4719   55.9218 C   0  0  0  0  0  0  0  0  0  0  0  0
   34.2544   32.8420   54.7165 C   0  0  0  0  0  0  0  0  0  0  0  0
   32.1233   34.5875   52.7581 H   0  0  0  0  0  0  0  0  0  0  0  0
   31.6912   35.7146   54.9013 H   0  0  0  0  0  0  0  0  0  0  0  0
   32.7076   37.7198   59.3850 H   0  0  0  0  0  0  0  0  0  0  0  0
   32.4204   39.1942   57.5150 H   0  0  0  0  0  0  0  0  0  0  0  0
   33.2535   40.8884   55.9384 H   0  0  0  0  0  0  0  0  0  0  0  0
   34.7229   36.1994   55.4934 H   0  0  0  0  0  0  0  0  0  0  0  0
   34.5557   33.1602   56.8070 H   0  0  0  0  0  0  0  0  0  0  0  0
   34.9718   32.0368   54.6587 H   0  0  0  0  0  0  0  0  0  0  0  0
  1  2  1  0  0  0  0
  2 24  2  0  0  0  0
  2  3  1  0  0  0  0
  3  4  2  0  0  0  0
  3 25  1  0  0  0  0
  4  5  1  0  0  0  0
  4 26  1  0  0  0  0
  5  6  1  0  0  0  0
  5 23  2  0  0  0  0
  6 11  1  0  0  0  0
  6  7  2  0  0  0  0
  7  8  1  0  0  0  0
  8  9  1  0  0  0  0
  8 10  1  0  0  0  0
 10 11  2  0  0  0  0
 10 27  1  0  0  0  0
 11 12  1  0  0  0  0
 12 22  2  0  0  0  0
 12 13  1  0  0  0  0
 13 14  2  0  0  0  0
 13 28  1  0  0  0  0
 14 15  1  0  0  0  0
 14 29  1  0  0  0  0
 15 16  1  0  0  0  0
 15 17  2  0  0  0  0
 17 18  1  0  0  0  0
 17 22  1  0  0  0  0
 18 19  1  0  0  0  0
 18 20  1  0  0  0  0
 18 21  1  0  0  0  0
 22 30  1  0  0  0  0
 23 24  1  0  0  0  0
 23 31  1  0  0  0  0
 24 32  1  0  0  0  0
M  END
$$$$
