ZINC000000016979      none
 OpenBabel11202420153D

 38 40  0  0  0  0  0  0  0  0999 V2000
   34.8680   38.3038   52.8017 C   0  0  0  0  0  0  0  0  0  0  0  0
   34.4688   37.0806   53.4235 O   0  0  0  0  0  0  0  0  0  0  0  0
   34.0758   37.1484   54.7221 C   0  0  0  0  0  0  0  0  0  0  0  0
   34.0771   38.3631   55.3717 C   0  0  0  0  0  0  0  0  0  0  0  0
   33.6716   38.4300   56.7100 C   0  0  0  0  0  0  0  0  0  0  0  0
   33.6549   39.5882   57.3882 N   0  0  0  0  0  0  0  0  0  0  0  0
   33.2702   39.6194   58.6418 C   0  0  0  0  0  0  0  0  0  0  0  0
   32.8835   38.5402   59.3033 N   0  0  0  0  0  0  0  0  0  0  0  0
   32.8620   37.3452   58.7278 C   0  0  0  0  0  0  0  0  0  0  0  0
   32.4510   36.2286   59.4280 N   0  0  0  0  0  0  0  0  0  0  0  0
   32.0500   36.3485   60.7617 C   0  0  0  0  0  0  0  0  0  0  0  0
   32.2253   35.2859   61.6395 C   0  0  0  0  0  0  0  0  0  0  0  0
   31.8328   35.4096   62.9576 C   0  0  0  0  0  0  0  0  0  0  0  0
   31.2559   36.5854   63.4017 C   0  0  0  0  0  0  0  0  0  0  0  0
   31.0750   37.6429   62.5293 C   0  0  0  0  0  0  0  0  0  0  0  0
   30.4569   38.8995   63.0089 N   0  0  0  0  0  0  0  0  0  0  0  0
   30.1078   39.0017   64.1713 O   0  0  0  0  0  0  0  0  0  0  0  0
   30.2974   39.8314   62.2409 O   0  0  0  0  0  0  0  0  0  0  0  0
   31.4701   37.5278   61.2108 C   0  0  0  0  0  0  0  0  0  0  0  0
   33.2661   37.2462   57.3751 C   0  0  0  0  0  0  0  0  0  0  0  0
   33.2741   36.0242   56.6921 C   0  0  0  0  0  0  0  0  0  0  0  0
   33.6729   35.9816   55.3863 C   0  0  0  0  0  0  0  0  0  0  0  0
   33.6798   34.7942   54.7237 O   0  0  0  0  0  0  0  0  0  0  0  0
   32.4829   34.4293   54.0338 C   0  0  0  0  0  0  0  0  0  0  0  0
   35.7147   38.7268   53.3422 H   0  0  0  0  0  0  0  0  0  0  0  0
   35.1569   38.1090   51.7689 H   0  0  0  0  0  0  0  0  0  0  0  0
   34.0367   39.0086   52.8196 H   0  0  0  0  0  0  0  0  0  0  0  0
   34.3890   39.2572   54.8524 H   0  0  0  0  0  0  0  0  0  0  0  0
   33.2687   40.5685   59.1575 H   0  0  0  0  0  0  0  0  0  0  0  0
   32.4403   35.3610   58.9945 H   0  0  0  0  0  0  0  0  0  0  0  0
   32.6718   34.3659   61.2924 H   0  0  0  0  0  0  0  0  0  0  0  0
   31.9727   34.5855   63.6415 H   0  0  0  0  0  0  0  0  0  0  0  0
   30.9462   36.6780   64.4321 H   0  0  0  0  0  0  0  0  0  0  0  0
   31.3286   38.3542   60.5299 H   0  0  0  0  0  0  0  0  0  0  0  0
   32.9659   35.1195   57.1951 H   0  0  0  0  0  0  0  0  0  0  0  0
   32.2531   35.1833   53.2811 H   0  0  0  0  0  0  0  0  0  0  0  0
   32.6230   33.4630   53.5493 H   0  0  0  0  0  0  0  0  0  0  0  0
   31.6594   34.3631   54.7449 H   0  0  0  0  0  0  0  0  0  0  0  0
  1  2  1  0  0  0  0
  1 25  1  0  0  0  0
  1 26  1  0  0  0  0
  1 27  1  0  0  0  0
  2  3  1  0  0  0  0
  3 22  2  0  0  0  0
  3  4  1  0  0  0  0
  4  5  2  0  0  0  0
  4 28  1  0  0  0  0
  5 20  1  0  0  0  0
  5  6  1  0  0  0  0
  6  7  2  0  0  0  0
  7  8  1  0  0  0  0
  7 29  1  0  0  0  0
  8  9  2  0  0  0  0
  9 10  1  0  0  0  0
  9 20  1  0  0  0  0
 10 11  1  0  0  0  0
 10 30  1  0  0  0  0
 11 19  2  0  0  0  0
 11 12  1  0  0  0  0
 12 13  2  0  0  0  0
 12 31  1  0  0  0  0
 13 14  1  0  0  0  0
 13 32  1  0  0  0  0
 14 15  2  0  0  0  0
 14 33  1  0  0  0  0
 15 16  1  0  0  0  0
 15 19  1  0  0  0  0
 16 17  2  0  0  0  0
 16 18  2  0  0  0  0
 19 34  1  0  0  0  0
 20 21  2  0  0  0  0
 21 22  1  0  0  0  0
 21 35  1  0  0  0  0
 22 23  1  0  0  0  0
 23 24  1  0  0  0  0
 24 36  1  0  0  0  0
 24 37  1  0  0  0  0
 24 38  1  0  0  0  0
M  END
$$$$
