ZINC000000026781      none
 OpenBabel11202420153D

 35 37  0  0  0  0  0  0  0  0999 V2000
   32.0091   35.4684   64.2085 C   0  0  0  0  0  0  0  0  0  0  0  0
   31.7635   36.1852   62.9058 C   0  0  0  0  0  0  0  0  0  0  0  0
   32.5541   37.2069   62.3724 C   0  0  0  0  0  0  0  0  0  0  0  0
   31.9979   37.5902   61.1908 C   0  0  0  0  0  0  0  0  0  0  0  0
   32.4760   38.5866   60.3395 N   0  0  0  0  0  0  0  0  0  0  0  0
   32.8265   38.2811   59.0745 C   0  0  0  0  0  0  0  0  0  0  0  0
   32.7258   37.1369   58.6752 O   0  0  0  0  0  0  0  0  0  0  0  0
   33.2885   39.2436   58.2521 N   0  0  0  0  0  0  0  0  0  0  0  0
   33.6531   38.9258   56.9364 C   0  0  0  0  0  0  0  0  0  0  0  0
   33.5891   37.6530   56.3473 C   0  0  0  0  0  0  0  0  0  0  0  0
   34.0272   37.7630   55.0726 C   0  0  0  0  0  0  0  0  0  0  0  0
   34.1290   36.6430   54.0695 C   0  0  0  0  0  0  0  0  0  0  0  0
   34.5949   35.2777   54.5791 C   0  0  0  0  0  0  0  0  0  0  0  0
   33.1298   35.4909   54.1932 C   0  0  0  0  0  0  0  0  0  0  0  0
   34.3625   39.0531   54.8602 N   0  0  0  0  0  0  0  0  0  0  0  0
   34.7119   39.4223   54.0340 H   0  0  0  0  0  0  0  0  0  0  0  0
   34.1146   39.7658   56.0401 N   0  0  0  0  0  0  0  0  0  0  0  0
   30.9008   36.8256   60.9889 N   0  0  0  0  0  0  0  0  0  0  0  0
   30.0005   36.8969   59.8353 C   0  0  0  0  0  0  0  0  0  0  0  0
   30.7769   35.9538   62.0782 N   0  0  0  0  0  0  0  0  0  0  0  0
   32.6431   34.5997   64.0313 H   0  0  0  0  0  0  0  0  0  0  0  0
   32.5042   36.1432   64.9068 H   0  0  0  0  0  0  0  0  0  0  0  0
   31.0576   35.1439   64.6297 H   0  0  0  0  0  0  0  0  0  0  0  0
   33.4463   37.6202   62.8193 H   0  0  0  0  0  0  0  0  0  0  0  0
   32.5563   39.4992   60.6580 H   0  0  0  0  0  0  0  0  0  0  0  0
   33.3687   40.1563   58.5707 H   0  0  0  0  0  0  0  0  0  0  0  0
   33.2496   36.7468   56.8270 H   0  0  0  0  0  0  0  0  0  0  0  0
   34.4363   36.9373   53.0659 H   0  0  0  0  0  0  0  0  0  0  0  0
   35.2087   34.6736   53.9109 H   0  0  0  0  0  0  0  0  0  0  0  0
   34.8280   35.1894   55.6402 H   0  0  0  0  0  0  0  0  0  0  0  0
   32.3991   35.5429   55.0003 H   0  0  0  0  0  0  0  0  0  0  0  0
   32.7794   35.0275   53.2708 H   0  0  0  0  0  0  0  0  0  0  0  0
   30.3523   36.2193   59.0574 H   0  0  0  0  0  0  0  0  0  0  0  0
   28.9948   36.6085   60.1409 H   0  0  0  0  0  0  0  0  0  0  0  0
   29.9847   37.9162   59.4493 H   0  0  0  0  0  0  0  0  0  0  0  0
  1  2  1  0  0  0  0
  1 21  1  0  0  0  0
  1 22  1  0  0  0  0
  1 23  1  0  0  0  0
  2 20  2  0  0  0  0
  2  3  1  0  0  0  0
  3  4  2  0  0  0  0
  3 24  1  0  0  0  0
  4  5  1  0  0  0  0
  4 18  1  0  0  0  0
  5  6  1  0  0  0  0
  5 25  1  0  0  0  0
  6  7  2  0  0  0  0
  6  8  1  0  0  0  0
  8  9  1  0  0  0  0
  8 26  1  0  0  0  0
  9 17  2  0  0  0  0
  9 10  1  0  0  0  0
 10 11  2  0  0  0  0
 10 27  1  0  0  0  0
 11 12  1  0  0  0  0
 11 15  1  0  0  0  0
 12 14  1  0  0  0  0
 12 13  1  0  0  0  0
 12 28  1  0  0  0  0
 13 14  1  0  0  0  0
 13 29  1  0  0  0  0
 13 30  1  0  0  0  0
 14 31  1  0  0  0  0
 14 32  1  0  0  0  0
 15 16  1  0  0  0  0
 15 17  1  0  0  0  0
 18 19  1  0  0  0  0
 18 20  1  0  0  0  0
 19 33  1  0  0  0  0
 19 34  1  0  0  0  0
 19 35  1  0  0  0  0
M  END
$$$$
