ZINC000000001080      none
 OpenBabel11202420153D

 29 29  0  0  0  0  0  0  0  0999 V2000
   33.4884   35.7595   56.1360 C   0  0  0  0  0  0  0  0  0  0  0  0
   33.6479   37.1248   56.5268 O   0  0  0  0  0  0  0  0  0  0  0  0
   33.1122   37.4916   57.7216 C   0  0  0  0  0  0  0  0  0  0  0  0
   33.2309   38.8016   58.1620 C   0  0  0  0  0  0  0  0  0  0  0  0
   32.6867   39.1741   59.3756 C   0  0  0  0  0  0  0  0  0  0  0  0
   32.0265   38.2369   60.1566 C   0  0  0  0  0  0  0  0  0  0  0  0
   31.4953   38.6023   61.3538 O   0  0  0  0  0  0  0  0  0  0  0  0
   31.9037   36.9283   59.7141 C   0  0  0  0  0  0  0  0  0  0  0  0
   31.1820   35.9113   60.5601 C   0  0  0  0  0  0  0  0  0  0  0  0
   29.7372   36.3639   60.7803 C   0  0  0  0  0  0  0  0  0  0  0  0
   31.1892   34.5575   59.8472 C   0  0  0  0  0  0  0  0  0  0  0  0
   31.8868   35.7797   61.9117 C   0  0  0  0  0  0  0  0  0  0  0  0
   32.4476   36.5558   58.5000 C   0  0  0  0  0  0  0  0  0  0  0  0
   33.9564   35.1123   56.8779 H   0  0  0  0  0  0  0  0  0  0  0  0
   32.4267   35.5232   56.0659 H   0  0  0  0  0  0  0  0  0  0  0  0
   33.9608   35.6015   55.1665 H   0  0  0  0  0  0  0  0  0  0  0  0
   33.7484   39.5304   57.5558 H   0  0  0  0  0  0  0  0  0  0  0  0
   32.7791   40.1940   59.7185 H   0  0  0  0  0  0  0  0  0  0  0  0
   31.6279   39.5343   61.5749 H   0  0  0  0  0  0  0  0  0  0  0  0
   29.2350   36.4578   59.8174 H   0  0  0  0  0  0  0  0  0  0  0  0
   29.2153   35.6283   61.3922 H   0  0  0  0  0  0  0  0  0  0  0  0
   29.7321   37.3284   61.2882 H   0  0  0  0  0  0  0  0  0  0  0  0
   32.2185   34.2349   59.6904 H   0  0  0  0  0  0  0  0  0  0  0  0
   30.6672   33.8219   60.4591 H   0  0  0  0  0  0  0  0  0  0  0  0
   30.6870   34.6513   58.8844 H   0  0  0  0  0  0  0  0  0  0  0  0
   31.8817   36.7441   62.4195 H   0  0  0  0  0  0  0  0  0  0  0  0
   31.3649   35.0440   62.5236 H   0  0  0  0  0  0  0  0  0  0  0  0
   32.9161   35.4572   61.7548 H   0  0  0  0  0  0  0  0  0  0  0  0
   32.3555   35.5358   58.1571 H   0  0  0  0  0  0  0  0  0  0  0  0
  1  2  1  0  0  0  0
  1 14  1  0  0  0  0
  1 15  1  0  0  0  0
  1 16  1  0  0  0  0
  2  3  1  0  0  0  0
  3 13  2  0  0  0  0
  3  4  1  0  0  0  0
  4  5  2  0  0  0  0
  4 17  1  0  0  0  0
  5  6  1  0  0  0  0
  5 18  1  0  0  0  0
  6  7  1  0  0  0  0
  6  8  2  0  0  0  0
  7 19  1  0  0  0  0
  8  9  1  0  0  0  0
  8 13  1  0  0  0  0
  9 10  1  0  0  0  0
  9 11  1  0  0  0  0
  9 12  1  0  0  0  0
 10 20  1  0  0  0  0
 10 21  1  0  0  0  0
 10 22  1  0  0  0  0
 11 23  1  0  0  0  0
 11 24  1  0  0  0  0
 11 25  1  0  0  0  0
 12 26  1  0  0  0  0
 12 27  1  0  0  0  0
 12 28  1  0  0  0  0
 13 29  1  0  0  0  0
M  END
$$$$
