ZINC000000056974      none
 OpenBabel11202420153D

 32 34  0  0  0  0  0  0  0  0999 V2000
   31.7057   32.5201   61.7851 O   0  0  0  0  0  0  0  0  0  0  0  0
   32.1753   33.8182   61.4154 C   0  0  0  0  0  0  0  0  0  0  0  0
   31.0376   34.6052   60.7619 C   0  0  0  0  0  0  0  0  0  0  0  0
   31.5330   35.9739   60.3720 C   0  0  0  0  0  0  0  0  0  0  0  0
   31.4356   37.0238   61.2677 C   0  0  0  0  0  0  0  0  0  0  0  0
   31.8824   38.2826   60.9144 C   0  0  0  0  0  0  0  0  0  0  0  0
   32.4410   38.4942   59.6634 C   0  0  0  0  0  0  0  0  0  0  0  0
   32.8867   39.7302   59.3164 O   0  0  0  0  0  0  0  0  0  0  0  0
   32.5448   37.4359   58.7627 C   0  0  0  0  0  0  0  0  0  0  0  0
   33.1084   37.6430   57.4976 N   0  0  0  0  0  0  0  0  0  0  0  0
   33.2424   36.7138   56.6164 N   0  0  0  0  0  0  0  0  0  0  0  0
   33.8036   37.2288   55.5333 C   0  0  0  0  0  0  0  0  0  0  0  0
   34.2009   36.7586   54.2700 C   0  0  0  0  0  0  0  0  0  0  0  0
   34.7721   37.6179   53.3855 C   0  0  0  0  0  0  0  0  0  0  0  0
   34.9771   38.9622   53.6968 C   0  0  0  0  0  0  0  0  0  0  0  0
   34.6158   39.4800   54.9003 C   0  0  0  0  0  0  0  0  0  0  0  0
   34.0197   38.6461   55.8616 C   0  0  0  0  0  0  0  0  0  0  0  0
   33.5532   38.7817   57.0933 N   0  0  0  0  0  0  0  0  0  0  0  0
   32.0881   36.1756   59.1235 C   0  0  0  0  0  0  0  0  0  0  0  0
   31.3836   31.9921   61.0419 H   0  0  0  0  0  0  0  0  0  0  0  0
   33.0004   33.7187   60.7100 H   0  0  0  0  0  0  0  0  0  0  0  0
   32.5192   34.3469   62.3043 H   0  0  0  0  0  0  0  0  0  0  0  0
   30.2126   34.7047   61.4673 H   0  0  0  0  0  0  0  0  0  0  0  0
   30.6938   34.0764   59.8730 H   0  0  0  0  0  0  0  0  0  0  0  0
   31.0050   36.8599   62.2446 H   0  0  0  0  0  0  0  0  0  0  0  0
   31.8009   39.1008   61.6146 H   0  0  0  0  0  0  0  0  0  0  0  0
   32.7722   40.3977   60.0066 H   0  0  0  0  0  0  0  0  0  0  0  0
   34.0538   35.7223   54.0041 H   0  0  0  0  0  0  0  0  0  0  0  0
   35.0750   37.2504   52.4161 H   0  0  0  0  0  0  0  0  0  0  0  0
   35.4344   39.6084   52.9622 H   0  0  0  0  0  0  0  0  0  0  0  0
   34.7859   40.5244   55.1164 H   0  0  0  0  0  0  0  0  0  0  0  0
   32.1670   35.3530   58.4283 H   0  0  0  0  0  0  0  0  0  0  0  0
  1  2  1  0  0  0  0
  1 20  1  0  0  0  0
  2  3  1  0  0  0  0
  2 21  1  0  0  0  0
  2 22  1  0  0  0  0
  3  4  1  0  0  0  0
  3 23  1  0  0  0  0
  3 24  1  0  0  0  0
  4 19  2  0  0  0  0
  4  5  1  0  0  0  0
  5  6  2  0  0  0  0
  5 25  1  0  0  0  0
  6  7  1  0  0  0  0
  6 26  1  0  0  0  0
  7  8  1  0  0  0  0
  7  9  2  0  0  0  0
  8 27  1  0  0  0  0
  9 10  1  0  0  0  0
  9 19  1  0  0  0  0
 10 18  1  0  0  0  0
 10 11  1  0  0  0  0
 11 12  2  0  0  0  0
 12 17  1  0  0  0  0
 12 13  1  0  0  0  0
 13 14  2  0  0  0  0
 13 28  1  0  0  0  0
 14 15  1  0  0  0  0
 14 29  1  0  0  0  0
 15 16  2  0  0  0  0
 15 30  1  0  0  0  0
 16 17  1  0  0  0  0
 16 31  1  0  0  0  0
 17 18  2  0  0  0  0
 19 32  1  0  0  0  0
M  END
$$$$
