ZINC000000028584      none
 OpenBabel11202420163D

 21 22  0  0  0  0  0  0  0  0999 V2000
   35.9770   40.5085   51.8904 C   0  0  0  0  0  0  0  0  0  0  0  0
   35.4436   39.3658   52.7154 C   0  0  0  0  0  0  0  0  0  0  0  0
   35.3550   38.0964   52.3020 C   0  0  0  0  0  0  0  0  0  0  0  0
   34.8407   37.2140   53.2242 C   0  0  0  0  0  0  0  0  0  0  0  0
   34.4936   37.7817   54.4152 C   0  0  0  0  0  0  0  0  0  0  0  0
   33.9226   37.0675   55.5602 C   0  0  0  0  0  0  0  0  0  0  0  0
   33.6290   37.7147   56.6501 N   0  0  0  0  0  0  0  0  0  0  0  0
   33.0831   37.0318   57.7449 N   0  0  0  0  0  0  0  0  0  0  0  0
   32.7266   37.5610   58.9490 C   0  0  0  0  0  0  0  0  0  0  0  0
   32.2579   36.5831   59.6776 N   0  0  0  0  0  0  0  0  0  0  0  0
   32.3021   35.4833   59.0135 N   0  0  0  0  0  0  0  0  0  0  0  0
   32.8015   35.7010   57.8262 C   0  0  0  0  0  0  0  0  0  0  0  0
   34.8460   39.5041   54.3632 S   0  0  0  0  0  0  0  0  0  0  0  0
   35.9335   41.4286   52.4731 H   0  0  0  0  0  0  0  0  0  0  0  0
   37.0106   40.3037   51.6112 H   0  0  0  0  0  0  0  0  0  0  0  0
   35.3726   40.6198   50.9901 H   0  0  0  0  0  0  0  0  0  0  0  0
   35.6684   37.7857   51.3163 H   0  0  0  0  0  0  0  0  0  0  0  0
   34.7191   36.1603   53.0211 H   0  0  0  0  0  0  0  0  0  0  0  0
   33.7454   36.0037   55.4995 H   0  0  0  0  0  0  0  0  0  0  0  0
   32.8113   38.5964   59.2444 H   0  0  0  0  0  0  0  0  0  0  0  0
   32.9576   34.9645   57.0519 H   0  0  0  0  0  0  0  0  0  0  0  0
  1  2  1  0  0  0  0
  1 14  1  0  0  0  0
  1 15  1  0  0  0  0
  1 16  1  0  0  0  0
  2 13  1  0  0  0  0
  2  3  2  0  0  0  0
  3  4  1  0  0  0  0
  3 17  1  0  0  0  0
  4  5  2  0  0  0  0
  4 18  1  0  0  0  0
  5  6  1  0  0  0  0
  5 13  1  0  0  0  0
  6  7  2  0  0  0  0
  6 19  1  0  0  0  0
  7  8  1  0  0  0  0
  8 12  1  0  0  0  0
  8  9  1  0  0  0  0
  9 10  2  0  0  0  0
  9 20  1  0  0  0  0
 10 11  1  0  0  0  0
 11 12  2  0  0  0  0
 12 21  1  0  0  0  0
M  END
$$$$
