ZINC000000055338      none
 OpenBabel11202420153D

 30 32  0  0  0  0  0  0  0  0999 V2000
   32.5909   38.7996   59.9939 O   0  0  0  0  0  0  0  0  0  0  0  0
   32.7619   38.0131   59.0818 C   0  0  0  0  0  0  0  0  0  0  0  0
   33.1953   38.2877   57.8325 O   0  0  0  0  0  0  0  0  0  0  0  0
   33.2461   37.1389   57.1310 C   0  0  0  0  0  0  0  0  0  0  0  0
   33.6753   37.0452   55.7220 C   0  0  0  0  0  0  0  0  0  0  0  0
   33.7008   35.8059   55.0775 C   0  0  0  0  0  0  0  0  0  0  0  0
   34.0974   35.7253   53.7598 C   0  0  0  0  0  0  0  0  0  0  0  0
   34.4808   36.8696   53.0773 C   0  0  0  0  0  0  0  0  0  0  0  0
   34.8736   36.7840   51.7875 F   0  0  0  0  0  0  0  0  0  0  0  0
   34.4631   38.1014   53.7133 C   0  0  0  0  0  0  0  0  0  0  0  0
   34.0632   38.1949   55.0292 C   0  0  0  0  0  0  0  0  0  0  0  0
   32.8634   36.1201   57.8505 N   0  0  0  0  0  0  0  0  0  0  0  0
   32.5397   36.5546   59.1028 C   0  0  0  0  0  0  0  0  0  0  0  0
   32.0938   35.7934   60.1610 C   0  0  0  0  0  0  0  0  0  0  0  0
   31.6325   36.4459   61.3903 C   0  0  0  0  0  0  0  0  0  0  0  0
   32.5353   36.7130   62.4281 C   0  0  0  0  0  0  0  0  0  0  0  0
   32.0943   37.3322   63.5772 C   0  0  0  0  0  0  0  0  0  0  0  0
   30.7605   37.6795   63.7141 C   0  0  0  0  0  0  0  0  0  0  0  0
   29.8598   37.4149   62.6973 C   0  0  0  0  0  0  0  0  0  0  0  0
   30.2843   36.8012   61.5368 C   0  0  0  0  0  0  0  0  0  0  0  0
   29.0520   36.4412   60.1485 Br  0  0  0  0  0  0  0  0  0  0  0  0
   33.4063   34.9133   55.6095 H   0  0  0  0  0  0  0  0  0  0  0  0
   34.1140   34.7683   53.2595 H   0  0  0  0  0  0  0  0  0  0  0  0
   34.7634   38.9894   53.1769 H   0  0  0  0  0  0  0  0  0  0  0  0
   34.0493   39.1550   55.5236 H   0  0  0  0  0  0  0  0  0  0  0  0
   32.0841   34.7161   60.0851 H   0  0  0  0  0  0  0  0  0  0  0  0
   33.5748   36.4385   62.3256 H   0  0  0  0  0  0  0  0  0  0  0  0
   32.7900   37.5432   64.3758 H   0  0  0  0  0  0  0  0  0  0  0  0
   30.4214   38.1601   64.6199 H   0  0  0  0  0  0  0  0  0  0  0  0
   28.8217   37.6891   62.8128 H   0  0  0  0  0  0  0  0  0  0  0  0
  1  2  2  0  0  0  0
  2 13  1  0  0  0  0
  2  3  1  0  0  0  0
  3  4  1  0  0  0  0
  4  5  1  0  0  0  0
  4 12  2  0  0  0  0
  5 11  2  0  0  0  0
  5  6  1  0  0  0  0
  6  7  2  0  0  0  0
  6 22  1  0  0  0  0
  7  8  1  0  0  0  0
  7 23  1  0  0  0  0
  8  9  1  0  0  0  0
  8 10  2  0  0  0  0
 10 11  1  0  0  0  0
 10 24  1  0  0  0  0
 11 25  1  0  0  0  0
 12 13  1  0  0  0  0
 13 14  2  0  0  0  0
 14 15  1  0  0  0  0
 14 26  1  0  0  0  0
 15 20  2  0  0  0  0
 15 16  1  0  0  0  0
 16 17  2  0  0  0  0
 16 27  1  0  0  0  0
 17 18  1  0  0  0  0
 17 28  1  0  0  0  0
 18 19  2  0  0  0  0
 18 29  1  0  0  0  0
 19 20  1  0  0  0  0
 19 30  1  0  0  0  0
 20 21  1  0  0  0  0
M  END
$$$$
