ZINC000000020827      none
 OpenBabel11202420153D

 18 20  0  0  0  0  0  0  0  0999 V2000
   32.8783   34.3382   57.0669 C   0  0  0  0  0  0  0  0  0  0  0  0
   33.2287   35.3944   56.2809 C   0  0  0  0  0  0  0  0  0  0  0  0
   33.1611   36.7042   56.7845 C   0  0  0  0  0  0  0  0  0  0  0  0
   33.5210   37.7846   55.9618 C   0  0  0  0  0  0  0  0  0  0  0  0
   33.4652   39.0593   56.4398 C   0  0  0  0  0  0  0  0  0  0  0  0
   33.0530   39.3000   57.7393 C   0  0  0  0  0  0  0  0  0  0  0  0
   32.6881   38.2488   58.5833 C   0  0  0  0  0  0  0  0  0  0  0  0
   32.1374   38.3433   60.2633 S   0  0  0  0  0  0  0  0  0  0  0  0
   31.8851   36.3109   60.5333 S   0  0  0  0  0  0  0  0  0  0  0  0
   32.3884   35.8349   58.9040 C   0  0  0  0  0  0  0  0  0  0  0  0
   32.4629   34.5462   58.3710 C   0  0  0  0  0  0  0  0  0  0  0  0
   32.7342   36.9355   58.1266 C   0  0  0  0  0  0  0  0  0  0  0  0
   32.9293   33.3341   56.6724 H   0  0  0  0  0  0  0  0  0  0  0  0
   33.5555   35.2245   55.2657 H   0  0  0  0  0  0  0  0  0  0  0  0
   33.8431   37.6042   54.9470 H   0  0  0  0  0  0  0  0  0  0  0  0
   33.7439   39.8853   55.8023 H   0  0  0  0  0  0  0  0  0  0  0  0
   33.0136   40.3152   58.1059 H   0  0  0  0  0  0  0  0  0  0  0  0
   32.1921   33.6997   58.9849 H   0  0  0  0  0  0  0  0  0  0  0  0
  1 11  2  0  0  0  0
  1  2  1  0  0  0  0
  1 13  1  0  0  0  0
  2  3  2  0  0  0  0
  2 14  1  0  0  0  0
  3 12  1  0  0  0  0
  3  4  1  0  0  0  0
  4  5  2  0  0  0  0
  4 15  1  0  0  0  0
  5  6  1  0  0  0  0
  5 16  1  0  0  0  0
  6  7  2  0  0  0  0
  6 17  1  0  0  0  0
  7 12  1  0  0  0  0
  7  8  1  0  0  0  0
  8  9  1  0  0  0  0
  9 10  1  0  0  0  0
 10 11  1  0  0  0  0
 10 12  2  0  0  0  0
 11 18  1  0  0  0  0
M  END
$$$$
