ZINC000000056262      none
 OpenBabel11202420153D

 20 21  0  0  0  0  0  0  0  0999 V2000
   29.8201   36.8302   61.6897 C   0  0  0  0  0  0  0  0  0  0  0  0
   30.4397   37.4052   60.5093 O   0  0  0  0  0  0  0  0  0  0  0  0
   31.7874   37.3880   60.4549 C   0  0  0  0  0  0  0  0  0  0  0  0
   32.4268   36.9050   61.3701 O   0  0  0  0  0  0  0  0  0  0  0  0
   32.4806   37.9504   59.2946 C   0  0  0  0  0  0  0  0  0  0  0  0
   32.9101   39.2815   59.1391 C   0  0  0  0  0  0  0  0  0  0  0  0
   33.4869   39.4023   57.9729 N   0  0  0  0  0  0  0  0  0  0  0  0
   33.4658   38.1703   57.3103 N   0  0  0  0  0  0  0  0  0  0  0  0
   33.9358   37.7787   56.0922 C   0  0  0  0  0  0  0  0  0  0  0  0
   33.7666   36.4898   55.7011 C   0  0  0  0  0  0  0  0  0  0  0  0
   33.1241   35.5910   56.5602 C   0  0  0  0  0  0  0  0  0  0  0  0
   32.6861   35.9970   57.7318 N   0  0  0  0  0  0  0  0  0  0  0  0
   32.8445   37.2630   58.1201 C   0  0  0  0  0  0  0  0  0  0  0  0
   28.7362   36.9084   61.6058 H   0  0  0  0  0  0  0  0  0  0  0  0
   30.1031   35.7808   61.7740 H   0  0  0  0  0  0  0  0  0  0  0  0
   30.1558   37.3692   62.5755 H   0  0  0  0  0  0  0  0  0  0  0  0
   32.7841   40.0723   59.8638 H   0  0  0  0  0  0  0  0  0  0  0  0
   34.4331   38.4859   55.4449 H   0  0  0  0  0  0  0  0  0  0  0  0
   34.1284   36.1600   54.7384 H   0  0  0  0  0  0  0  0  0  0  0  0
   32.9881   34.5623   56.2606 H   0  0  0  0  0  0  0  0  0  0  0  0
  1  2  1  0  0  0  0
  1 14  1  0  0  0  0
  1 15  1  0  0  0  0
  1 16  1  0  0  0  0
  2  3  1  0  0  0  0
  3  4  2  0  0  0  0
  3  5  1  0  0  0  0
  5 13  2  0  0  0  0
  5  6  1  0  0  0  0
  6  7  2  0  0  0  0
  6 17  1  0  0  0  0
  7  8  1  0  0  0  0
  8 13  1  0  0  0  0
  8  9  1  0  0  0  0
  9 10  2  0  0  0  0
  9 18  1  0  0  0  0
 10 11  1  0  0  0  0
 10 19  1  0  0  0  0
 11 12  2  0  0  0  0
 11 20  1  0  0  0  0
 12 13  1  0  0  0  0
M  END
$$$$
