ZINC000000037707      none
 OpenBabel11202420153D

 36 38  0  0  0  0  0  0  0  0999 V2000
   32.4370   39.8407   57.2340 C   0  0  0  0  0  0  0  0  0  0  0  0
   33.4107   39.1268   57.9985 O   0  0  0  0  0  0  0  0  0  0  0  0
   32.9545   38.1375   58.8068 C   0  0  0  0  0  0  0  0  0  0  0  0
   32.5902   38.4190   60.1151 C   0  0  0  0  0  0  0  0  0  0  0  0
   32.1314   37.4101   60.9383 C   0  0  0  0  0  0  0  0  0  0  0  0
   32.0253   36.1125   60.4643 C   0  0  0  0  0  0  0  0  0  0  0  0
   32.3772   35.8158   59.1656 C   0  0  0  0  0  0  0  0  0  0  0  0
   32.8435   36.8271   58.3219 C   0  0  0  0  0  0  0  0  0  0  0  0
   33.2225   36.5164   56.9307 C   0  0  0  0  0  0  0  0  0  0  0  0
   34.0915   37.1635   56.3783 O   0  0  0  0  0  0  0  0  0  0  0  0
   32.6020   35.5191   56.2699 N   0  0  0  0  0  0  0  0  0  0  0  0
   32.9566   35.2289   54.9520 C   0  0  0  0  0  0  0  0  0  0  0  0
   32.8210   36.1853   53.9686 C   0  0  0  0  0  0  0  0  0  0  0  0
   33.1771   35.9080   52.6523 C   0  0  0  0  0  0  0  0  0  0  0  0
   33.6570   34.6841   52.2969 C   0  0  0  0  0  0  0  0  0  0  0  0
   33.8051   33.6793   53.2680 C   0  0  0  0  0  0  0  0  0  0  0  0
   34.2983   32.4071   52.9302 C   0  0  0  0  0  0  0  0  0  0  0  0
   34.4294   31.4573   53.8961 C   0  0  0  0  0  0  0  0  0  0  0  0
   34.0816   31.7263   55.2184 C   0  0  0  0  0  0  0  0  0  0  0  0
   33.6011   32.9473   55.5817 C   0  0  0  0  0  0  0  0  0  0  0  0
   33.4518   33.9517   54.6126 C   0  0  0  0  0  0  0  0  0  0  0  0
   31.9096   39.1471   56.5791 H   0  0  0  0  0  0  0  0  0  0  0  0
   31.7247   40.3176   57.9073 H   0  0  0  0  0  0  0  0  0  0  0  0
   32.9340   40.6018   56.6325 H   0  0  0  0  0  0  0  0  0  0  0  0
   32.6698   39.4281   60.4919 H   0  0  0  0  0  0  0  0  0  0  0  0
   31.8533   37.6336   61.9577 H   0  0  0  0  0  0  0  0  0  0  0  0
   31.6646   35.3302   61.1156 H   0  0  0  0  0  0  0  0  0  0  0  0
   32.2932   34.8029   58.8006 H   0  0  0  0  0  0  0  0  0  0  0  0
   31.9090   35.0030   56.7104 H   0  0  0  0  0  0  0  0  0  0  0  0
   32.4386   37.1627   54.2236 H   0  0  0  0  0  0  0  0  0  0  0  0
   33.0662   36.6741   51.8994 H   0  0  0  0  0  0  0  0  0  0  0  0
   33.9240   34.4860   51.2692 H   0  0  0  0  0  0  0  0  0  0  0  0
   34.5715   32.1844   51.9092 H   0  0  0  0  0  0  0  0  0  0  0  0
   34.8084   30.4806   53.6337 H   0  0  0  0  0  0  0  0  0  0  0  0
   34.1950   30.9550   55.9658 H   0  0  0  0  0  0  0  0  0  0  0  0
   33.3358   33.1419   56.6103 H   0  0  0  0  0  0  0  0  0  0  0  0
  1  2  1  0  0  0  0
  1 22  1  0  0  0  0
  1 23  1  0  0  0  0
  1 24  1  0  0  0  0
  2  3  1  0  0  0  0
  3  8  2  0  0  0  0
  3  4  1  0  0  0  0
  4  5  2  0  0  0  0
  4 25  1  0  0  0  0
  5  6  1  0  0  0  0
  5 26  1  0  0  0  0
  6  7  2  0  0  0  0
  6 27  1  0  0  0  0
  7  8  1  0  0  0  0
  7 28  1  0  0  0  0
  8  9  1  0  0  0  0
  9 10  2  0  0  0  0
  9 11  1  0  0  0  0
 11 12  1  0  0  0  0
 11 29  1  0  0  0  0
 12 21  2  0  0  0  0
 12 13  1  0  0  0  0
 13 14  2  0  0  0  0
 13 30  1  0  0  0  0
 14 15  1  0  0  0  0
 14 31  1  0  0  0  0
 15 16  2  0  0  0  0
 15 32  1  0  0  0  0
 16 21  1  0  0  0  0
 16 17  1  0  0  0  0
 17 18  2  0  0  0  0
 17 33  1  0  0  0  0
 18 19  1  0  0  0  0
 18 34  1  0  0  0  0
 19 20  2  0  0  0  0
 19 35  1  0  0  0  0
 20 21  1  0  0  0  0
 20 36  1  0  0  0  0
M  END
$$$$
