ZINC000000031375      none
 OpenBabel11202420163D

 38 39  0  0  0  0  0  0  0  0999 V2000
   32.9388   39.4403   56.6461 C   0  0  0  0  0  0  0  0  0  0  0  0
   33.6194   38.7801   57.7152 O   0  0  0  0  0  0  0  0  0  0  0  0
   32.8964   37.8977   58.4558 C   0  0  0  0  0  0  0  0  0  0  0  0
   32.2126   38.3324   59.5810 C   0  0  0  0  0  0  0  0  0  0  0  0
   31.4774   37.4364   60.3343 C   0  0  0  0  0  0  0  0  0  0  0  0
   30.7405   37.9119   61.5598 C   0  0  0  0  0  0  0  0  0  0  0  0
   31.6157   37.8015   62.7294 N   0  0  0  0  0  0  0  0  0  0  0  0
   31.1664   38.1725   63.9447 C   0  0  0  0  0  0  0  0  0  0  0  0
   30.0336   38.5993   64.0705 O   0  0  0  0  0  0  0  0  0  0  0  0
   32.0421   38.0622   65.1150 C   0  0  0  0  0  0  0  0  0  0  0  0
   32.6067   36.9065   65.5765 C   0  0  0  0  0  0  0  0  0  0  0  0
   33.3866   37.0907   66.6934 C   0  0  0  0  0  0  0  0  0  0  0  0
   33.4597   38.3525   67.1330 C   0  0  0  0  0  0  0  0  0  0  0  0
   32.5408   39.3970   66.1452 S   0  0  0  0  0  0  0  0  0  0  0  0
   31.4211   36.1041   59.9698 C   0  0  0  0  0  0  0  0  0  0  0  0
   32.1025   35.6614   58.8462 C   0  0  0  0  0  0  0  0  0  0  0  0
   32.0460   34.3506   58.4882 O   0  0  0  0  0  0  0  0  0  0  0  0
   31.2667   33.4850   59.3159 C   0  0  0  0  0  0  0  0  0  0  0  0
   32.8424   36.5592   58.0859 C   0  0  0  0  0  0  0  0  0  0  0  0
   33.5125   36.1286   56.9824 O   0  0  0  0  0  0  0  0  0  0  0  0
   32.7336   35.5386   55.9397 C   0  0  0  0  0  0  0  0  0  0  0  0
   32.1010   40.0111   57.0461 H   0  0  0  0  0  0  0  0  0  0  0  0
   33.6283   40.1145   56.1379 H   0  0  0  0  0  0  0  0  0  0  0  0
   32.5685   38.6986   55.9383 H   0  0  0  0  0  0  0  0  0  0  0  0
   32.2540   39.3724   59.8691 H   0  0  0  0  0  0  0  0  0  0  0  0
   30.4441   38.9521   61.4247 H   0  0  0  0  0  0  0  0  0  0  0  0
   29.8527   37.2979   61.7111 H   0  0  0  0  0  0  0  0  0  0  0  0
   32.5186   37.4615   62.6292 H   0  0  0  0  0  0  0  0  0  0  0  0
   32.4549   35.9442   65.1103 H   0  0  0  0  0  0  0  0  0  0  0  0
   33.9028   36.2766   67.1803 H   0  0  0  0  0  0  0  0  0  0  0  0
   34.0278   38.6682   67.9957 H   0  0  0  0  0  0  0  0  0  0  0  0
   30.8456   35.4072   60.5610 H   0  0  0  0  0  0  0  0  0  0  0  0
   30.2326   33.8296   59.3299 H   0  0  0  0  0  0  0  0  0  0  0  0
   31.3063   32.4704   58.9195 H   0  0  0  0  0  0  0  0  0  0  0  0
   31.6667   33.4947   60.3299 H   0  0  0  0  0  0  0  0  0  0  0  0
   32.2128   34.6628   56.3263 H   0  0  0  0  0  0  0  0  0  0  0  0
   32.0052   36.2633   55.5757 H   0  0  0  0  0  0  0  0  0  0  0  0
   33.3888   35.2398   55.1214 H   0  0  0  0  0  0  0  0  0  0  0  0
  1  2  1  0  0  0  0
  1 22  1  0  0  0  0
  1 23  1  0  0  0  0
  1 24  1  0  0  0  0
  2  3  1  0  0  0  0
  3 19  2  0  0  0  0
  3  4  1  0  0  0  0
  4  5  2  0  0  0  0
  4 25  1  0  0  0  0
  5  6  1  0  0  0  0
  5 15  1  0  0  0  0
  6  7  1  0  0  0  0
  6 26  1  0  0  0  0
  6 27  1  0  0  0  0
  7  8  1  0  0  0  0
  7 28  1  0  0  0  0
  8  9  2  0  0  0  0
  8 10  1  0  0  0  0
 10 14  1  0  0  0  0
 10 11  2  0  0  0  0
 11 12  1  0  0  0  0
 11 29  1  0  0  0  0
 12 13  2  0  0  0  0
 12 30  1  0  0  0  0
 13 14  1  0  0  0  0
 13 31  1  0  0  0  0
 15 16  2  0  0  0  0
 15 32  1  0  0  0  0
 16 17  1  0  0  0  0
 16 19  1  0  0  0  0
 17 18  1  0  0  0  0
 18 33  1  0  0  0  0
 18 34  1  0  0  0  0
 18 35  1  0  0  0  0
 19 20  1  0  0  0  0
 20 21  1  0  0  0  0
 21 36  1  0  0  0  0
 21 37  1  0  0  0  0
 21 38  1  0  0  0  0
M  END
$$$$
