ZINC000000006795      none
 OpenBabel11202420153D

 21 21  0  0  1  0  0  0  0  0999 V2000
   30.8646   36.8832   65.5512 N   0  3  0  0  0  0  0  0  0  0  0  0
   30.5266   36.7975   66.4981 H   0  0  0  0  0  0  0  0  0  0  0  0
   31.5619   36.1747   65.3776 H   0  0  0  0  0  0  0  0  0  0  0  0
   31.2736   37.7965   65.4215 H   0  0  0  0  0  0  0  0  0  0  0  0
   29.7465   36.7100   64.6145 C   0  0  2  0  0  0  0  0  0  0  0  0
   28.9934   37.4752   64.8021 H   0  0  0  0  0  0  0  0  0  0  0  0
   29.1356   35.3460   64.8082 C   0  0  0  0  0  0  0  0  0  0  0  0
   28.6130   34.7730   63.8675 O   0  0  0  0  0  0  0  0  0  0  0  0
   29.1639   34.8156   65.9056 O   0  0  0  0  0  1  0  0  0  0  0  0
   30.2514   36.8379   63.2003 C   0  0  0  0  0  0  0  0  0  0  0  0
   31.5905   37.0822   62.9637 C   0  0  0  0  0  0  0  0  0  0  0  0
   32.0542   37.2001   61.6667 C   0  0  0  0  0  0  0  0  0  0  0  0
   31.1795   37.0741   60.6031 C   0  0  0  0  0  0  0  0  0  0  0  0
   29.8398   36.8300   60.8344 C   0  0  0  0  0  0  0  0  0  0  0  0
   29.3720   36.7111   62.1352 C   0  0  0  0  0  0  0  0  0  0  0  0
   28.0542   36.4714   62.3653 O   0  0  0  0  0  0  0  0  0  0  0  0
   32.2756   37.1809   63.7928 H   0  0  0  0  0  0  0  0  0  0  0  0
   33.1014   37.3910   61.4839 H   0  0  0  0  0  0  0  0  0  0  0  0
   31.5450   37.1623   59.5907 H   0  0  0  0  0  0  0  0  0  0  0  0
   29.1572   36.7313   60.0033 H   0  0  0  0  0  0  0  0  0  0  0  0
   27.5213   36.3989   61.5616 H   0  0  0  0  0  0  0  0  0  0  0  0
  1  2  1  0  0  0  0
  1  3  1  0  0  0  0
  1  4  1  0  0  0  0
  1  5  1  0  0  0  0
  5  6  1  1  0  0  0
  5  7  1  0  0  0  0
  5 10  1  0  0  0  0
  7  8  2  0  0  0  0
  7  9  1  0  0  0  0
 10 15  2  0  0  0  0
 10 11  1  0  0  0  0
 11 12  2  0  0  0  0
 11 17  1  0  0  0  0
 12 13  1  0  0  0  0
 12 18  1  0  0  0  0
 13 14  2  0  0  0  0
 13 19  1  0  0  0  0
 14 15  1  0  0  0  0
 14 20  1  0  0  0  0
 15 16  1  0  0  0  0
 16 21  1  0  0  0  0
M  CHG  1   1   1
M  END
$$$$
