ZINC000000038364      none
 OpenBabel11202420153D

 30 31  0  0  0  0  0  0  0  0999 V2000
   35.2880   30.7164   55.4509 C   0  0  0  0  0  0  0  0  0  0  0  0
   35.5048   31.5395   54.1797 C   0  0  0  0  0  0  0  0  0  0  0  0
   35.8009   32.9150   54.5383 O   0  0  0  0  0  0  0  0  0  0  0  0
   34.7581   33.7516   54.6577 C   0  0  0  0  0  0  0  0  0  0  0  0
   33.6817   33.3292   55.0080 O   0  0  0  0  0  0  0  0  0  0  0  0
   34.9298   35.2179   54.3548 C   0  0  0  0  0  0  0  0  0  0  0  0
   33.7843   36.1822   55.3715 S   0  0  0  0  0  0  0  0  0  0  0  0
   34.1887   37.8091   54.8289 C   0  0  0  0  0  0  0  0  0  0  0  0
   34.6274   38.1494   53.6361 N   0  0  0  0  0  0  0  0  0  0  0  0
   34.8246   39.4167   53.5739 N   0  0  0  0  0  0  0  0  0  0  0  0
   34.5271   39.9736   54.6977 N   0  0  0  0  0  0  0  0  0  0  0  0
   34.1069   38.9476   55.5622 N   0  0  0  0  0  0  0  0  0  0  0  0
   33.6874   39.0747   56.8949 C   0  0  0  0  0  0  0  0  0  0  0  0
   32.7550   38.1896   57.4179 C   0  0  0  0  0  0  0  0  0  0  0  0
   32.3440   38.3165   58.7305 C   0  0  0  0  0  0  0  0  0  0  0  0
   32.8593   39.3244   59.5245 C   0  0  0  0  0  0  0  0  0  0  0  0
   33.7927   40.2054   59.0099 C   0  0  0  0  0  0  0  0  0  0  0  0
   34.2048   40.0871   57.6947 C   0  0  0  0  0  0  0  0  0  0  0  0
   35.1129   40.9508   57.1899 F   0  0  0  0  0  0  0  0  0  0  0  0
   36.1903   30.7463   56.0617 H   0  0  0  0  0  0  0  0  0  0  0  0
   34.4534   31.1323   56.0152 H   0  0  0  0  0  0  0  0  0  0  0  0
   35.0658   29.6837   55.1817 H   0  0  0  0  0  0  0  0  0  0  0  0
   34.6025   31.5094   53.5689 H   0  0  0  0  0  0  0  0  0  0  0  0
   36.3395   31.1234   53.6154 H   0  0  0  0  0  0  0  0  0  0  0  0
   34.7199   35.3982   53.3005 H   0  0  0  0  0  0  0  0  0  0  0  0
   35.9539   35.5175   54.5778 H   0  0  0  0  0  0  0  0  0  0  0  0
   32.3510   37.4022   56.7990 H   0  0  0  0  0  0  0  0  0  0  0  0
   31.6182   37.6279   59.1373 H   0  0  0  0  0  0  0  0  0  0  0  0
   32.5363   39.4208   60.5505 H   0  0  0  0  0  0  0  0  0  0  0  0
   34.1968   40.9890   59.6338 H   0  0  0  0  0  0  0  0  0  0  0  0
  1  2  1  0  0  0  0
  1 20  1  0  0  0  0
  1 21  1  0  0  0  0
  1 22  1  0  0  0  0
  2  3  1  0  0  0  0
  2 23  1  0  0  0  0
  2 24  1  0  0  0  0
  3  4  1  0  0  0  0
  4  5  2  0  0  0  0
  4  6  1  0  0  0  0
  6  7  1  0  0  0  0
  6 25  1  0  0  0  0
  6 26  1  0  0  0  0
  7  8  1  0  0  0  0
  8 12  1  0  0  0  0
  8  9  2  0  0  0  0
  9 10  1  0  0  0  0
 10 11  2  0  0  0  0
 11 12  1  0  0  0  0
 12 13  1  0  0  0  0
 13 18  2  0  0  0  0
 13 14  1  0  0  0  0
 14 15  2  0  0  0  0
 14 27  1  0  0  0  0
 15 16  1  0  0  0  0
 15 28  1  0  0  0  0
 16 17  2  0  0  0  0
 16 29  1  0  0  0  0
 17 18  1  0  0  0  0
 17 30  1  0  0  0  0
 18 19  1  0  0  0  0
M  END
$$$$
