ZINC000000040695      none
 OpenBabel11202420153D

 30 31  0  0  0  0  0  0  0  0999 V2000
   29.5503   40.2400   68.2650 O   0  0  0  0  0  0  0  0  0  0  0  0
   29.9995   40.4065   67.1508 C   0  0  0  0  0  0  0  0  0  0  0  0
   30.3794   39.3453   66.4118 N   0  0  0  0  0  0  0  0  0  0  0  0
   30.2605   37.9812   66.9456 C   0  0  0  0  0  0  0  0  0  0  0  0
   29.4261   37.1453   65.9603 C   0  0  0  0  0  0  0  0  0  0  0  0
   29.9721   37.3318   64.6087 N   0  0  0  0  0  0  0  0  0  0  0  0
   30.3527   36.2707   63.8701 C   0  0  0  0  0  0  0  0  0  0  0  0
   30.2459   35.1469   64.3206 O   0  0  0  0  0  0  0  0  0  0  0  0
   30.9006   36.4737   62.5119 C   0  0  0  0  0  0  0  0  0  0  0  0
   30.2676   35.9007   61.4078 C   0  0  0  0  0  0  0  0  0  0  0  0
   30.7810   36.0983   60.1428 C   0  0  0  0  0  0  0  0  0  0  0  0
   31.9272   36.8535   59.9682 C   0  0  0  0  0  0  0  0  0  0  0  0
   32.5627   37.4196   61.0590 C   0  0  0  0  0  0  0  0  0  0  0  0
   32.0564   37.2345   62.3289 C   0  0  0  0  0  0  0  0  0  0  0  0
   30.0962   38.6964   64.0770 C   0  0  0  0  0  0  0  0  0  0  0  0
   30.9254   39.5319   65.0602 C   0  0  0  0  0  0  0  0  0  0  0  0
   30.0911   41.4048   66.7491 H   0  0  0  0  0  0  0  0  0  0  0  0
   31.2525   37.5425   67.0528 H   0  0  0  0  0  0  0  0  0  0  0  0
   29.7636   38.0099   67.9154 H   0  0  0  0  0  0  0  0  0  0  0  0
   28.3877   37.4761   65.9842 H   0  0  0  0  0  0  0  0  0  0  0  0
   29.4807   36.0918   66.2347 H   0  0  0  0  0  0  0  0  0  0  0  0
   29.3754   35.3072   61.5432 H   0  0  0  0  0  0  0  0  0  0  0  0
   30.2897   35.6591   59.2871 H   0  0  0  0  0  0  0  0  0  0  0  0
   32.3272   37.0021   58.9761 H   0  0  0  0  0  0  0  0  0  0  0  0
   33.4570   38.0080   60.9160 H   0  0  0  0  0  0  0  0  0  0  0  0
   32.5531   37.6775   63.1795 H   0  0  0  0  0  0  0  0  0  0  0  0
   29.1057   39.1375   63.9669 H   0  0  0  0  0  0  0  0  0  0  0  0
   30.5949   38.6703   63.1081 H   0  0  0  0  0  0  0  0  0  0  0  0
   30.8679   40.5848   64.7846 H   0  0  0  0  0  0  0  0  0  0  0  0
   31.9646   39.2040   65.0371 H   0  0  0  0  0  0  0  0  0  0  0  0
  1  2  2  0  0  0  0
  2  3  1  0  0  0  0
  2 17  1  0  0  0  0
  3 16  1  0  0  0  0
  3  4  1  0  0  0  0
  4  5  1  0  0  0  0
  4 18  1  0  0  0  0
  4 19  1  0  0  0  0
  5  6  1  0  0  0  0
  5 20  1  0  0  0  0
  5 21  1  0  0  0  0
  6  7  1  0  0  0  0
  6 15  1  0  0  0  0
  7  8  2  0  0  0  0
  7  9  1  0  0  0  0
  9 14  2  0  0  0  0
  9 10  1  0  0  0  0
 10 11  2  0  0  0  0
 10 22  1  0  0  0  0
 11 12  1  0  0  0  0
 11 23  1  0  0  0  0
 12 13  2  0  0  0  0
 12 24  1  0  0  0  0
 13 14  1  0  0  0  0
 13 25  1  0  0  0  0
 14 26  1  0  0  0  0
 15 16  1  0  0  0  0
 15 27  1  0  0  0  0
 15 28  1  0  0  0  0
 16 29  1  0  0  0  0
 16 30  1  0  0  0  0
M  END
$$$$
