ZINC000000039605      none
 OpenBabel11202420153D

 24 24  0  0  1  0  0  0  0  0999 V2000
   30.1325   34.6692   67.7693 C   0  0  0  0  0  0  0  0  0  0  0  0
   30.7263   35.8966   67.0751 C   0  0  0  0  0  0  0  0  0  0  0  0
   30.1342   36.0461   65.7831 O   0  0  0  0  0  0  0  0  0  0  0  0
   30.6219   37.1694   65.0467 C   0  0  1  0  0  0  0  0  0  0  0  0
   29.9260   38.4410   65.5361 C   0  0  0  0  0  0  0  0  0  0  0  0
   32.0665   37.2952   65.2489 N   0  0  0  0  0  0  0  0  0  0  0  0
   32.9319   36.5852   64.5073 C   0  0  0  0  0  0  0  0  0  0  0  0
   34.1175   36.6339   64.7702 O   0  0  0  0  0  0  0  0  0  0  0  0
   32.5185   35.8219   63.4821 N   0  0  0  0  0  0  0  0  0  0  0  0
   31.2638   35.9212   63.0062 C   0  0  0  0  0  0  0  0  0  0  0  0
   30.8845   35.1692   62.1343 O   0  0  0  0  0  0  0  0  0  0  0  0
   30.3297   36.9689   63.5579 C   0  0  2  0  0  0  0  0  0  0  0  0
   29.2983   36.6406   63.4302 H   0  0  0  0  0  0  0  0  0  0  0  0
   30.6048   38.6638   62.6004 Br  0  0  0  0  0  0  0  0  0  0  0  0
   29.0554   34.7977   67.8759 H   0  0  0  0  0  0  0  0  0  0  0  0
   30.3349   33.7804   67.1718 H   0  0  0  0  0  0  0  0  0  0  0  0
   30.5842   34.5551   68.7547 H   0  0  0  0  0  0  0  0  0  0  0  0
   31.8035   35.7681   66.9685 H   0  0  0  0  0  0  0  0  0  0  0  0
   30.5238   36.7854   67.6727 H   0  0  0  0  0  0  0  0  0  0  0  0
   30.1337   38.5837   66.5965 H   0  0  0  0  0  0  0  0  0  0  0  0
   30.2979   39.2978   64.9745 H   0  0  0  0  0  0  0  0  0  0  0  0
   28.8505   38.3473   65.3860 H   0  0  0  0  0  0  0  0  0  0  0  0
   32.4035   37.9003   65.9281 H   0  0  0  0  0  0  0  0  0  0  0  0
   33.1337   35.1896   63.0788 H   0  0  0  0  0  0  0  0  0  0  0  0
  1  2  1  0  0  0  0
  1 15  1  0  0  0  0
  1 16  1  0  0  0  0
  1 17  1  0  0  0  0
  2  3  1  0  0  0  0
  2 18  1  0  0  0  0
  2 19  1  0  0  0  0
  4  3  1  1  0  0  0
  4 12  1  0  0  0  0
  4  5  1  0  0  0  0
  4  6  1  0  0  0  0
  5 20  1  0  0  0  0
  5 21  1  0  0  0  0
  5 22  1  0  0  0  0
  6  7  1  0  0  0  0
  6 23  1  0  0  0  0
  7  8  2  0  0  0  0
  7  9  1  0  0  0  0
  9 10  1  0  0  0  0
  9 24  1  0  0  0  0
 10 11  2  0  0  0  0
 10 12  1  0  0  0  0
 12 13  1  6  0  0  0
 12 14  1  0  0  0  0
M  END
$$$$
