ZINC000000000190      none
 OpenBabel11202420153D

 28 30  0  0  1  0  0  0  0  0999 V2000
   28.7249   36.7100   60.9538 O   0  0  0  0  0  0  0  0  0  0  0  0
   29.6797   36.8734   61.6876 C   0  0  0  0  0  0  0  0  0  0  0  0
   29.9251   36.2531   62.8414 N   0  0  0  0  0  0  0  0  0  0  0  0
   31.0462   36.6597   63.3915 C   0  0  0  0  0  0  0  0  0  0  0  0
   31.5218   36.1821   64.5727 N   0  0  0  0  0  0  0  0  0  0  0  0
   32.7835   36.6929   65.1143 C   0  0  0  0  0  0  0  0  0  0  0  0
   33.0269   36.5259   66.6157 C   0  0  0  0  0  0  0  0  0  0  0  0
   32.7140   37.9088   66.0405 C   0  0  0  0  0  0  0  0  0  0  0  0
   31.6700   37.6021   62.6652 O   0  0  0  0  0  0  0  0  0  0  0  0
   30.8413   37.8264   61.4831 C   0  0  1  0  0  0  0  0  0  0  0  0
   30.4915   38.8584   61.4528 H   0  0  0  0  0  0  0  0  0  0  0  0
   31.5942   37.4846   60.2232 C   0  0  0  0  0  0  0  0  0  0  0  0
   32.2326   38.4805   59.5079 C   0  0  0  0  0  0  0  0  0  0  0  0
   32.9269   38.1663   58.3546 C   0  0  0  0  0  0  0  0  0  0  0  0
   32.9749   36.8579   57.9114 C   0  0  0  0  0  0  0  0  0  0  0  0
   32.3325   35.8627   58.6242 C   0  0  0  0  0  0  0  0  0  0  0  0
   31.6418   36.1762   59.7798 C   0  0  0  0  0  0  0  0  0  0  0  0
   31.0278   35.5005   65.0545 H   0  0  0  0  0  0  0  0  0  0  0  0
   33.6459   36.6130   64.4525 H   0  0  0  0  0  0  0  0  0  0  0  0
   32.2482   36.0362   67.2003 H   0  0  0  0  0  0  0  0  0  0  0  0
   34.0495   36.3361   66.9416 H   0  0  0  0  0  0  0  0  0  0  0  0
   33.5309   38.6287   65.9881 H   0  0  0  0  0  0  0  0  0  0  0  0
   31.7296   38.3287   66.2467 H   0  0  0  0  0  0  0  0  0  0  0  0
   32.1917   39.5034   59.8519 H   0  0  0  0  0  0  0  0  0  0  0  0
   33.4291   38.9438   57.7979 H   0  0  0  0  0  0  0  0  0  0  0  0
   33.5145   36.6130   57.0084 H   0  0  0  0  0  0  0  0  0  0  0  0
   32.3700   34.8405   58.2779 H   0  0  0  0  0  0  0  0  0  0  0  0
   31.1397   35.3988   60.3365 H   0  0  0  0  0  0  0  0  0  0  0  0
  1  2  2  0  0  0  0
  2 10  1  0  0  0  0
  2  3  1  0  0  0  0
  3  4  2  0  0  0  0
  4  5  1  0  0  0  0
  4  9  1  0  0  0  0
  5  6  1  0  0  0  0
  5 18  1  0  0  0  0
  6  8  1  0  0  0  0
  6  7  1  0  0  0  0
  6 19  1  0  0  0  0
  7  8  1  0  0  0  0
  7 20  1  0  0  0  0
  7 21  1  0  0  0  0
  8 22  1  0  0  0  0
  8 23  1  0  0  0  0
  9 10  1  0  0  0  0
 10 11  1  6  0  0  0
 10 12  1  0  0  0  0
 12 17  2  0  0  0  0
 12 13  1  0  0  0  0
 13 14  2  0  0  0  0
 13 24  1  0  0  0  0
 14 15  1  0  0  0  0
 14 25  1  0  0  0  0
 15 16  2  0  0  0  0
 15 26  1  0  0  0  0
 16 17  1  0  0  0  0
 16 27  1  0  0  0  0
 17 28  1  0  0  0  0
M  END
$$$$
