ZINC000000026449      none
 OpenBabel11202420153D

 16 17  0  0  0  0  0  0  0  0999 V2000
   32.0601   39.1297   60.5462 N   0  0  0  0  0  0  0  0  0  0  0  0
   32.4448   38.5124   59.3730 C   0  0  0  0  0  0  0  0  0  0  0  0
   32.3931   37.2426   59.1584 N   0  0  0  0  0  0  0  0  0  0  0  0
   32.8057   36.7891   57.9574 C   0  0  0  0  0  0  0  0  0  0  0  0
   32.8476   35.4602   57.4822 C   0  0  0  0  0  0  0  0  0  0  0  0
   32.3184   34.1613   58.5050 Cl  0  0  0  0  0  0  0  0  0  0  0  0
   33.3042   35.1889   56.2151 C   0  0  0  0  0  0  0  0  0  0  0  0
   33.3476   33.5484   55.6487 Cl  0  0  0  0  0  0  0  0  0  0  0  0
   33.7312   36.2155   55.3840 C   0  0  0  0  0  0  0  0  0  0  0  0
   33.6990   37.5186   55.8281 C   0  0  0  0  0  0  0  0  0  0  0  0
   33.2387   37.8119   57.1095 C   0  0  0  0  0  0  0  0  0  0  0  0
   33.0676   39.3473   57.9568 S   0  0  0  0  0  0  0  0  0  0  0  0
   31.7211   38.5998   61.2846 H   0  0  0  0  0  0  0  0  0  0  0  0
   32.1326   40.0930   60.6337 H   0  0  0  0  0  0  0  0  0  0  0  0
   34.0888   35.9922   54.3897 H   0  0  0  0  0  0  0  0  0  0  0  0
   34.0316   38.3161   55.1802 H   0  0  0  0  0  0  0  0  0  0  0  0
  1  2  1  0  0  0  0
  1 13  1  0  0  0  0
  1 14  1  0  0  0  0
  2 12  1  0  0  0  0
  2  3  2  0  0  0  0
  3  4  1  0  0  0  0
  4 11  2  0  0  0  0
  4  5  1  0  0  0  0
  5  6  1  0  0  0  0
  5  7  2  0  0  0  0
  7  8  1  0  0  0  0
  7  9  1  0  0  0  0
  9 10  2  0  0  0  0
  9 15  1  0  0  0  0
 10 11  1  0  0  0  0
 10 16  1  0  0  0  0
 11 12  1  0  0  0  0
M  END
$$$$
