ZINC000000037233      none
 OpenBabel11202420153D

 37 38  0  0  0  0  0  0  0  0999 V2000
   32.2922   33.1599   62.1205 C   0  0  0  0  0  0  0  0  0  0  0  0
   31.4235   34.3042   62.6470 C   0  0  0  0  0  0  0  0  0  0  0  0
   32.1408   35.5353   62.5386 O   0  0  0  0  0  0  0  0  0  0  0  0
   31.5076   36.6565   62.9654 C   0  0  0  0  0  0  0  0  0  0  0  0
   31.0909   36.7622   64.2842 C   0  0  0  0  0  0  0  0  0  0  0  0
   30.4406   37.9002   64.7154 C   0  0  0  0  0  0  0  0  0  0  0  0
   30.2061   38.9486   63.8394 C   0  0  0  0  0  0  0  0  0  0  0  0
   30.6181   38.8632   62.5273 C   0  0  0  0  0  0  0  0  0  0  0  0
   31.2763   37.7158   62.0772 C   0  0  0  0  0  0  0  0  0  0  0  0
   31.7202   37.6176   60.6740 C   0  0  0  0  0  0  0  0  0  0  0  0
   31.2926   36.7295   59.9618 O   0  0  0  0  0  0  0  0  0  0  0  0
   32.5994   38.5122   60.1811 N   0  0  0  0  0  0  0  0  0  0  0  0
   33.0201   38.4192   58.8506 C   0  0  0  0  0  0  0  0  0  0  0  0
   33.3774   39.5652   58.1518 C   0  0  0  0  0  0  0  0  0  0  0  0
   33.7920   39.4698   56.8379 C   0  0  0  0  0  0  0  0  0  0  0  0
   33.8513   38.2353   56.2178 C   0  0  0  0  0  0  0  0  0  0  0  0
   34.3032   38.1351   54.7837 C   0  0  0  0  0  0  0  0  0  0  0  0
   34.9528   36.8327   54.5638 C   0  0  0  0  0  0  0  0  0  0  0  0
   35.4542   35.8275   54.3941 N   0  0  0  0  0  0  0  0  0  0  0  0
   33.4913   37.0930   56.9091 C   0  0  0  0  0  0  0  0  0  0  0  0
   33.0812   37.1807   58.2250 C   0  0  0  0  0  0  0  0  0  0  0  0
   32.5417   33.3443   61.0757 H   0  0  0  0  0  0  0  0  0  0  0  0
   33.2084   33.0995   62.7079 H   0  0  0  0  0  0  0  0  0  0  0  0
   31.7451   32.2209   62.2032 H   0  0  0  0  0  0  0  0  0  0  0  0
   31.1739   34.1199   63.6919 H   0  0  0  0  0  0  0  0  0  0  0  0
   30.5072   34.3645   62.0597 H   0  0  0  0  0  0  0  0  0  0  0  0
   31.2705   35.9503   64.9733 H   0  0  0  0  0  0  0  0  0  0  0  0
   30.1155   37.9774   65.7425 H   0  0  0  0  0  0  0  0  0  0  0  0
   29.6977   39.8360   64.1864 H   0  0  0  0  0  0  0  0  0  0  0  0
   30.4327   39.6819   61.8478 H   0  0  0  0  0  0  0  0  0  0  0  0
   32.9405   39.2207   60.7492 H   0  0  0  0  0  0  0  0  0  0  0  0
   33.3307   40.5298   58.6354 H   0  0  0  0  0  0  0  0  0  0  0  0
   34.0699   40.3605   56.2940 H   0  0  0  0  0  0  0  0  0  0  0  0
   35.0118   38.9353   54.5694 H   0  0  0  0  0  0  0  0  0  0  0  0
   33.4407   38.2271   54.1236 H   0  0  0  0  0  0  0  0  0  0  0  0
   33.5347   36.1307   56.4207 H   0  0  0  0  0  0  0  0  0  0  0  0
   32.8038   36.2878   58.7655 H   0  0  0  0  0  0  0  0  0  0  0  0
  1  2  1  0  0  0  0
  1 22  1  0  0  0  0
  1 23  1  0  0  0  0
  1 24  1  0  0  0  0
  2  3  1  0  0  0  0
  2 25  1  0  0  0  0
  2 26  1  0  0  0  0
  3  4  1  0  0  0  0
  4  9  2  0  0  0  0
  4  5  1  0  0  0  0
  5  6  2  0  0  0  0
  5 27  1  0  0  0  0
  6  7  1  0  0  0  0
  6 28  1  0  0  0  0
  7  8  2  0  0  0  0
  7 29  1  0  0  0  0
  8  9  1  0  0  0  0
  8 30  1  0  0  0  0
  9 10  1  0  0  0  0
 10 11  2  0  0  0  0
 10 12  1  0  0  0  0
 12 13  1  0  0  0  0
 12 31  1  0  0  0  0
 13 21  2  0  0  0  0
 13 14  1  0  0  0  0
 14 15  2  0  0  0  0
 14 32  1  0  0  0  0
 15 16  1  0  0  0  0
 15 33  1  0  0  0  0
 16 17  1  0  0  0  0
 16 20  2  0  0  0  0
 17 18  1  0  0  0  0
 17 34  1  0  0  0  0
 17 35  1  0  0  0  0
 18 19  3  0  0  0  0
 20 21  1  0  0  0  0
 20 36  1  0  0  0  0
 21 37  1  0  0  0  0
M  END
$$$$
