ZINC000000001251      none
 OpenBabel11202420153D

 31 32  0  0  0  0  0  0  0  0999 V2000
   33.1644   35.6413   55.2669 C   0  0  0  0  0  0  0  0  0  0  0  0
   33.6398   36.9774   55.4435 O   0  0  0  0  0  0  0  0  0  0  0  0
   33.3338   37.5914   56.6176 C   0  0  0  0  0  0  0  0  0  0  0  0
   33.7666   38.8941   56.8524 C   0  0  0  0  0  0  0  0  0  0  0  0
   33.4701   39.5287   58.0377 C   0  0  0  0  0  0  0  0  0  0  0  0
   32.7226   38.8722   59.0099 C   0  0  0  0  0  0  0  0  0  0  0  0
   32.2724   39.2334   60.2623 N   0  0  0  0  0  0  0  0  0  0  0  0
   32.4298   40.0922   60.6848 H   0  0  0  0  0  0  0  0  0  0  0  0
   31.5711   38.1996   60.8199 C   0  0  0  0  0  0  0  0  0  0  0  0
   30.9284   38.2260   62.1827 C   0  0  0  0  0  0  0  0  0  0  0  0
   31.5409   37.1580   59.9737 C   0  0  0  0  0  0  0  0  0  0  0  0
   30.8700   35.8296   60.2111 C   0  0  0  0  0  0  0  0  0  0  0  0
   31.8443   34.8846   60.8657 C   0  0  0  0  0  0  0  0  0  0  0  0
   32.5529   34.1753   60.1832 O   0  0  0  0  0  0  0  0  0  0  0  0
   31.9283   34.8275   62.2097 N   0  0  0  0  0  0  0  0  0  0  0  0
   32.8438   33.9396   62.8248 O   0  0  0  0  0  0  0  0  0  0  0  0
   32.2836   37.5569   58.7756 C   0  0  0  0  0  0  0  0  0  0  0  0
   32.5949   36.9210   57.5717 C   0  0  0  0  0  0  0  0  0  0  0  0
   33.5774   35.0026   56.0478 H   0  0  0  0  0  0  0  0  0  0  0  0
   32.0762   35.6319   55.3275 H   0  0  0  0  0  0  0  0  0  0  0  0
   33.4773   35.2703   54.2909 H   0  0  0  0  0  0  0  0  0  0  0  0
   34.3442   39.4097   56.0994 H   0  0  0  0  0  0  0  0  0  0  0  0
   33.8146   40.5375   58.2111 H   0  0  0  0  0  0  0  0  0  0  0  0
   31.6404   37.8694   62.9271 H   0  0  0  0  0  0  0  0  0  0  0  0
   30.6306   39.2463   62.4243 H   0  0  0  0  0  0  0  0  0  0  0  0
   30.0495   37.5813   62.1825 H   0  0  0  0  0  0  0  0  0  0  0  0
   30.0068   35.9697   60.8618 H   0  0  0  0  0  0  0  0  0  0  0  0
   30.5431   35.4122   59.2587 H   0  0  0  0  0  0  0  0  0  0  0  0
   31.3615   35.3948   62.7556 H   0  0  0  0  0  0  0  0  0  0  0  0
   32.8320   33.9697   63.7912 H   0  0  0  0  0  0  0  0  0  0  0  0
   32.2592   35.9111   57.3881 H   0  0  0  0  0  0  0  0  0  0  0  0
  1  2  1  0  0  0  0
  1 19  1  0  0  0  0
  1 20  1  0  0  0  0
  1 21  1  0  0  0  0
  2  3  1  0  0  0  0
  3 18  2  0  0  0  0
  3  4  1  0  0  0  0
  4  5  2  0  0  0  0
  4 22  1  0  0  0  0
  5  6  1  0  0  0  0
  5 23  1  0  0  0  0
  6 17  2  0  0  0  0
  6  7  1  0  0  0  0
  7  8  1  0  0  0  0
  7  9  1  0  0  0  0
  9 10  1  0  0  0  0
  9 11  2  0  0  0  0
 10 24  1  0  0  0  0
 10 25  1  0  0  0  0
 10 26  1  0  0  0  0
 11 12  1  0  0  0  0
 11 17  1  0  0  0  0
 12 13  1  0  0  0  0
 12 27  1  0  0  0  0
 12 28  1  0  0  0  0
 13 14  2  0  0  0  0
 13 15  1  0  0  0  0
 15 16  1  0  0  0  0
 15 29  1  0  0  0  0
 16 30  1  0  0  0  0
 17 18  1  0  0  0  0
 18 31  1  0  0  0  0
M  END
$$$$
