ZINC000000033507      none
 OpenBabel11202420153D

 35 37  0  0  1  0  0  0  0  0999 V2000
   32.7334   33.8787   62.7816 O   0  0  0  0  0  0  0  0  0  0  0  0
   32.3562   34.6976   61.9703 C   0  0  0  0  0  0  0  0  0  0  0  0
   31.7826   34.2439   60.6526 C   0  0  0  0  0  0  0  0  0  0  0  0
   30.5670   35.4542   60.0751 S   0  0  0  0  0  0  0  0  0  0  0  0
   31.6144   36.5159   59.1369 C   0  0  0  0  0  0  0  0  0  0  0  0
   31.7339   37.8032   59.4491 N   0  0  0  0  0  0  0  0  0  0  0  0
   32.5160   38.6060   58.7514 C   0  0  0  0  0  0  0  0  0  0  0  0
   33.2166   38.1878   57.7180 N   0  0  0  0  0  0  0  0  0  0  0  0
   33.1611   36.9174   57.3310 C   0  0  0  0  0  0  0  0  0  0  0  0
   33.7454   36.1834   56.3299 N   0  0  0  0  0  0  0  0  0  0  0  0
   34.3680   36.5145   55.6638 H   0  0  0  0  0  0  0  0  0  0  0  0
   33.2907   34.9033   56.4433 C   0  0  0  0  0  0  0  0  0  0  0  0
   32.4680   34.8111   57.4475 N   0  0  0  0  0  0  0  0  0  0  0  0
   32.3428   36.0225   58.0405 C   0  0  0  0  0  0  0  0  0  0  0  0
   32.4502   36.0133   62.2471 N   0  0  0  0  0  0  0  0  0  0  0  0
   33.0078   36.4542   63.5281 C   0  0  0  0  0  0  0  0  0  0  0  0
   31.8832   36.5790   64.5580 C   0  0  2  0  0  0  0  0  0  0  0  0
   31.3949   35.6135   64.6908 H   0  0  0  0  0  0  0  0  0  0  0  0
   30.8525   37.6261   64.0837 C   0  0  0  0  0  0  0  0  0  0  0  0
   30.4881   38.3515   65.4095 C   0  0  0  0  0  0  0  0  0  0  0  0
   31.8446   38.3002   66.1567 C   0  0  0  0  0  0  0  0  0  0  0  0
   32.4170   37.0297   65.8083 O   0  0  0  0  0  0  0  0  0  0  0  0
   31.2986   33.2757   60.7811 H   0  0  0  0  0  0  0  0  0  0  0  0
   32.5838   34.1551   59.9190 H   0  0  0  0  0  0  0  0  0  0  0  0
   32.5840   39.6447   59.0392 H   0  0  0  0  0  0  0  0  0  0  0  0
   33.5716   34.0862   55.7952 H   0  0  0  0  0  0  0  0  0  0  0  0
   32.1485   36.6681   61.5983 H   0  0  0  0  0  0  0  0  0  0  0  0
   33.7397   35.7252   63.8760 H   0  0  0  0  0  0  0  0  0  0  0  0
   33.4920   37.4223   63.3998 H   0  0  0  0  0  0  0  0  0  0  0  0
   31.3029   38.3195   63.3735 H   0  0  0  0  0  0  0  0  0  0  0  0
   29.9773   37.1409   63.6520 H   0  0  0  0  0  0  0  0  0  0  0  0
   29.7182   37.8064   65.9553 H   0  0  0  0  0  0  0  0  0  0  0  0
   30.1806   39.3805   65.2237 H   0  0  0  0  0  0  0  0  0  0  0  0
   31.6859   38.3613   67.2334 H   0  0  0  0  0  0  0  0  0  0  0  0
   32.4917   39.1112   65.8222 H   0  0  0  0  0  0  0  0  0  0  0  0
  1  2  2  0  0  0  0
  2  3  1  0  0  0  0
  2 15  1  0  0  0  0
  3  4  1  0  0  0  0
  3 23  1  0  0  0  0
  3 24  1  0  0  0  0
  4  5  1  0  0  0  0
  5 14  2  0  0  0  0
  5  6  1  0  0  0  0
  6  7  2  0  0  0  0
  7  8  1  0  0  0  0
  7 25  1  0  0  0  0
  8  9  2  0  0  0  0
  9 14  1  0  0  0  0
  9 10  1  0  0  0  0
 10 11  1  0  0  0  0
 10 12  1  0  0  0  0
 12 13  2  0  0  0  0
 12 26  1  0  0  0  0
 13 14  1  0  0  0  0
 15 16  1  0  0  0  0
 15 27  1  0  0  0  0
 16 17  1  0  0  0  0
 16 28  1  0  0  0  0
 16 29  1  0  0  0  0
 17 18  1  1  0  0  0
 17 22  1  0  0  0  0
 17 19  1  0  0  0  0
 19 20  1  0  0  0  0
 19 30  1  0  0  0  0
 19 31  1  0  0  0  0
 20 21  1  0  0  0  0
 20 32  1  0  0  0  0
 20 33  1  0  0  0  0
 21 22  1  0  0  0  0
 21 34  1  0  0  0  0
 21 35  1  0  0  0  0
M  END
$$$$
