ZINC000000038076      none
 OpenBabel11202420153D

 30 31  0  0  0  0  0  0  0  0999 V2000
   34.0022   36.8478   53.9571 C   0  0  0  0  0  0  0  0  0  0  0  0
   34.1043   38.1409   54.5566 O   0  0  0  0  0  0  0  0  0  0  0  0
   33.7139   38.2522   55.8519 C   0  0  0  0  0  0  0  0  0  0  0  0
   33.7884   39.4828   56.4945 C   0  0  0  0  0  0  0  0  0  0  0  0
   33.3942   39.6009   57.8082 C   0  0  0  0  0  0  0  0  0  0  0  0
   32.9176   38.4794   58.4969 C   0  0  0  0  0  0  0  0  0  0  0  0
   32.4952   38.5998   59.8997 C   0  0  0  0  0  0  0  0  0  0  0  0
   32.4241   37.5004   60.6799 C   0  0  0  0  0  0  0  0  0  0  0  0
   32.0097   37.6212   62.0770 C   0  0  0  0  0  0  0  0  0  0  0  0
   31.2408   38.5042   62.4097 O   0  0  0  0  0  0  0  0  0  0  0  0
   32.4790   36.7545   62.9963 N   0  0  0  0  0  0  0  0  0  0  0  0
   32.0830   36.8698   64.3317 C   0  0  0  0  0  0  0  0  0  0  0  0
   32.4774   36.0756   65.3315 N   0  0  0  0  0  0  0  0  0  0  0  0
   31.9192   36.4618   66.4503 C   0  0  0  0  0  0  0  0  0  0  0  0
   31.1440   37.5273   66.1867 N   0  0  0  0  0  0  0  0  0  0  0  0
   30.6075   38.0264   66.8224 H   0  0  0  0  0  0  0  0  0  0  0  0
   31.2676   37.7791   64.8108 N   0  0  0  0  0  0  0  0  0  0  0  0
   32.8500   37.2415   57.8470 C   0  0  0  0  0  0  0  0  0  0  0  0
   33.2413   37.1353   56.5314 C   0  0  0  0  0  0  0  0  0  0  0  0
   34.6197   36.1408   54.5109 H   0  0  0  0  0  0  0  0  0  0  0  0
   32.9634   36.5181   53.9793 H   0  0  0  0  0  0  0  0  0  0  0  0
   34.3453   36.8983   52.9238 H   0  0  0  0  0  0  0  0  0  0  0  0
   34.1566   40.3474   55.9624 H   0  0  0  0  0  0  0  0  0  0  0  0
   33.4528   40.5572   58.3067 H   0  0  0  0  0  0  0  0  0  0  0  0
   32.2461   39.5685   60.3074 H   0  0  0  0  0  0  0  0  0  0  0  0
   32.6730   36.5318   60.2723 H   0  0  0  0  0  0  0  0  0  0  0  0
   33.0917   36.0507   62.7311 H   0  0  0  0  0  0  0  0  0  0  0  0
   32.0573   36.0029   67.4182 H   0  0  0  0  0  0  0  0  0  0  0  0
   32.4872   36.3722   58.3753 H   0  0  0  0  0  0  0  0  0  0  0  0
   33.1857   36.1816   56.0277 H   0  0  0  0  0  0  0  0  0  0  0  0
  1  2  1  0  0  0  0
  1 20  1  0  0  0  0
  1 21  1  0  0  0  0
  1 22  1  0  0  0  0
  2  3  1  0  0  0  0
  3 19  2  0  0  0  0
  3  4  1  0  0  0  0
  4  5  2  0  0  0  0
  4 23  1  0  0  0  0
  5  6  1  0  0  0  0
  5 24  1  0  0  0  0
  6  7  1  0  0  0  0
  6 18  2  0  0  0  0
  7  8  2  0  0  0  0
  7 25  1  0  0  0  0
  8  9  1  0  0  0  0
  8 26  1  0  0  0  0
  9 10  2  0  0  0  0
  9 11  1  0  0  0  0
 11 12  1  0  0  0  0
 11 27  1  0  0  0  0
 12 17  2  0  0  0  0
 12 13  1  0  0  0  0
 13 14  2  0  0  0  0
 14 15  1  0  0  0  0
 14 28  1  0  0  0  0
 15 16  1  0  0  0  0
 15 17  1  0  0  0  0
 18 19  1  0  0  0  0
 18 29  1  0  0  0  0
 19 30  1  0  0  0  0
M  END
$$$$
