ZINC000000041034      none
 OpenBabel11202420153D

 37 39  0  0  0  0  0  0  0  0999 V2000
   33.5501   36.1011   52.2870 C   0  0  0  0  0  0  0  0  0  0  0  0
   34.3504   37.0597   53.0530 N   0  0  0  0  0  0  0  0  0  0  0  0
   35.5131   37.6638   52.6613 C   0  0  0  0  0  0  0  0  0  0  0  0
   35.8929   38.4422   53.6349 N   0  0  0  0  0  0  0  0  0  0  0  0
   35.0605   38.3657   54.6113 N   0  0  0  0  0  0  0  0  0  0  0  0
   34.0935   37.5311   54.3083 C   0  0  0  0  0  0  0  0  0  0  0  0
   32.7226   37.1013   55.3285 S   0  0  0  0  0  0  0  0  0  0  0  0
   33.5966   36.4038   56.7520 C   0  0  0  0  0  0  0  0  0  0  0  0
   32.6552   35.5304   57.5408 C   0  0  0  0  0  0  0  0  0  0  0  0
   32.5481   34.1878   57.2312 C   0  0  0  0  0  0  0  0  0  0  0  0
   31.6836   33.3917   57.9670 C   0  0  0  0  0  0  0  0  0  0  0  0
   30.9475   33.9813   58.9834 C   0  0  0  0  0  0  0  0  0  0  0  0
   31.1031   35.3319   59.2313 C   0  0  0  0  0  0  0  0  0  0  0  0
   30.3082   35.9832   60.3336 C   0  0  0  0  0  0  0  0  0  0  0  0
   31.2412   35.8967   61.8823 S   0  0  0  0  0  0  0  0  0  0  0  0
   30.4443   37.1784   62.7915 C   0  0  0  0  0  0  0  0  0  0  0  0
   29.4546   37.9329   62.3734 N   0  0  0  0  0  0  0  0  0  0  0  0
   29.1191   38.7632   63.2952 N   0  0  0  0  0  0  0  0  0  0  0  0
   29.8677   38.5899   64.3475 C   0  0  0  0  0  0  0  0  0  0  0  0
   30.7353   37.5709   64.0665 N   0  0  0  0  0  0  0  0  0  0  0  0
   31.7650   37.0171   64.9492 C   0  0  0  0  0  0  0  0  0  0  0  0
   31.9393   36.0573   58.5148 N   0  0  0  0  0  0  0  0  0  0  0  0
   32.8085   36.6378   51.6952 H   0  0  0  0  0  0  0  0  0  0  0  0
   33.0446   35.4205   52.9722 H   0  0  0  0  0  0  0  0  0  0  0  0
   34.2015   35.5318   51.6239 H   0  0  0  0  0  0  0  0  0  0  0  0
   36.0213   37.5233   51.7189 H   0  0  0  0  0  0  0  0  0  0  0  0
   34.4399   35.8074   56.4040 H   0  0  0  0  0  0  0  0  0  0  0  0
   33.9604   37.2118   57.3866 H   0  0  0  0  0  0  0  0  0  0  0  0
   33.1336   33.7630   56.4292 H   0  0  0  0  0  0  0  0  0  0  0  0
   31.5825   32.3385   57.7505 H   0  0  0  0  0  0  0  0  0  0  0  0
   30.2616   33.3922   59.5742 H   0  0  0  0  0  0  0  0  0  0  0  0
   30.1219   37.0266   60.0796 H   0  0  0  0  0  0  0  0  0  0  0  0
   29.3578   35.4629   60.4525 H   0  0  0  0  0  0  0  0  0  0  0  0
   29.8110   39.1457   65.2718 H   0  0  0  0  0  0  0  0  0  0  0  0
   32.6987   37.5603   64.8039 H   0  0  0  0  0  0  0  0  0  0  0  0
   31.4454   37.1152   65.9867 H   0  0  0  0  0  0  0  0  0  0  0  0
   31.9171   35.9637   64.7140 H   0  0  0  0  0  0  0  0  0  0  0  0
  1  2  1  0  0  0  0
  1 23  1  0  0  0  0
  1 24  1  0  0  0  0
  1 25  1  0  0  0  0
  2  6  1  0  0  0  0
  2  3  1  0  0  0  0
  3  4  2  0  0  0  0
  3 26  1  0  0  0  0
  4  5  1  0  0  0  0
  5  6  2  0  0  0  0
  6  7  1  0  0  0  0
  7  8  1  0  0  0  0
  8  9  1  0  0  0  0
  8 27  1  0  0  0  0
  8 28  1  0  0  0  0
  9 22  2  0  0  0  0
  9 10  1  0  0  0  0
 10 11  2  0  0  0  0
 10 29  1  0  0  0  0
 11 12  1  0  0  0  0
 11 30  1  0  0  0  0
 12 13  2  0  0  0  0
 12 31  1  0  0  0  0
 13 14  1  0  0  0  0
 13 22  1  0  0  0  0
 14 15  1  0  0  0  0
 14 32  1  0  0  0  0
 14 33  1  0  0  0  0
 15 16  1  0  0  0  0
 16 20  1  0  0  0  0
 16 17  2  0  0  0  0
 17 18  1  0  0  0  0
 18 19  2  0  0  0  0
 19 20  1  0  0  0  0
 19 34  1  0  0  0  0
 20 21  1  0  0  0  0
 21 35  1  0  0  0  0
 21 36  1  0  0  0  0
 21 37  1  0  0  0  0
M  END
$$$$
