ZINC000000018331      none
 OpenBabel11202420153D

 20 20  0  0  0  0  0  0  0  0999 V2000
   33.2493   35.6582   53.9273 C   0  0  0  0  0  0  0  0  0  0  0  0
   32.8782   36.1319   55.2631 N   0  0  0  0  0  0  0  0  0  0  0  0
   33.5470   37.0906   55.8187 C   0  0  0  0  0  0  0  0  0  0  0  0
   33.1737   37.5671   57.1625 C   0  0  0  0  0  0  0  0  0  0  0  0
   33.3984   38.8982   57.5229 C   0  0  0  0  0  0  0  0  0  0  0  0
   33.0407   39.3394   58.7836 C   0  0  0  0  0  0  0  0  0  0  0  0
   33.2544   40.6357   59.1342 O   0  0  0  0  0  0  0  0  0  0  0  0
   32.4684   38.4606   59.6949 C   0  0  0  0  0  0  0  0  0  0  0  0
   32.2425   37.1437   59.3465 C   0  0  0  0  0  0  0  0  0  0  0  0
   32.5912   36.6877   58.0847 C   0  0  0  0  0  0  0  0  0  0  0  0
   32.3686   35.3924   57.7434 O   0  0  0  0  0  0  0  0  0  0  0  0
   32.5778   34.8536   53.6276 H   0  0  0  0  0  0  0  0  0  0  0  0
   33.1718   36.4802   53.2157 H   0  0  0  0  0  0  0  0  0  0  0  0
   34.2746   35.2884   53.9448 H   0  0  0  0  0  0  0  0  0  0  0  0
   34.3787   37.5414   55.2977 H   0  0  0  0  0  0  0  0  0  0  0  0
   33.8466   39.5818   56.8171 H   0  0  0  0  0  0  0  0  0  0  0  0
   32.9727   40.8514   60.0338 H   0  0  0  0  0  0  0  0  0  0  0  0
   32.1946   38.8104   60.6794 H   0  0  0  0  0  0  0  0  0  0  0  0
   31.7934   36.4673   60.0587 H   0  0  0  0  0  0  0  0  0  0  0  0
   32.6446   35.1698   56.8437 H   0  0  0  0  0  0  0  0  0  0  0  0
  1  2  1  0  0  0  0
  1 12  1  0  0  0  0
  1 13  1  0  0  0  0
  1 14  1  0  0  0  0
  2  3  2  0  0  0  0
  3  4  1  0  0  0  0
  3 15  1  0  0  0  0
  4 10  2  0  0  0  0
  4  5  1  0  0  0  0
  5  6  2  0  0  0  0
  5 16  1  0  0  0  0
  6  7  1  0  0  0  0
  6  8  1  0  0  0  0
  7 17  1  0  0  0  0
  8  9  2  0  0  0  0
  8 18  1  0  0  0  0
  9 10  1  0  0  0  0
  9 19  1  0  0  0  0
 10 11  1  0  0  0  0
 11 20  1  0  0  0  0
M  END
$$$$
