ZINC000000029250      none
 OpenBabel11202420163D

 32 33  0  0  1  0  0  0  0  0999 V2000
   29.2552   36.4410   59.9344 C   0  0  0  0  0  0  0  0  0  0  0  0
   30.0934   36.8953   61.1310 C   0  0  2  0  0  0  0  0  0  0  0  0
   29.8374   37.9237   61.3856 H   0  0  0  0  0  0  0  0  0  0  0  0
   31.5836   36.8113   60.7795 C   0  0  0  0  0  0  0  0  0  0  0  0
   32.4194   37.2955   61.9666 C   0  0  0  0  0  0  0  0  0  0  0  0
   32.1568   36.3902   63.1741 C   0  0  0  0  0  0  0  0  0  0  0  0
   30.7105   36.3511   63.4302 N   0  0  0  0  0  0  0  0  0  0  0  0
   30.2212   36.6447   64.6512 C   0  0  0  0  0  0  0  0  0  0  0  0
   29.0226   36.6089   64.8505 O   0  0  0  0  0  0  0  0  0  0  0  0
   31.1419   37.0101   65.7477 C   0  0  0  0  0  0  0  0  0  0  0  0
   31.6704   36.0206   66.5791 C   0  0  0  0  0  0  0  0  0  0  0  0
   32.5289   36.3684   67.6007 C   0  0  0  0  0  0  0  0  0  0  0  0
   32.8677   37.6951   67.8036 C   0  0  0  0  0  0  0  0  0  0  0  0
   32.3484   38.6812   66.9852 C   0  0  0  0  0  0  0  0  0  0  0  0
   31.4920   38.3468   65.9539 C   0  0  0  0  0  0  0  0  0  0  0  0
   30.8472   39.5848   64.9219 Cl  0  0  0  0  0  0  0  0  0  0  0  0
   29.8078   35.9856   62.3301 C   0  0  0  0  0  0  0  0  0  0  0  0
   28.1969   36.4979   60.1894 H   0  0  0  0  0  0  0  0  0  0  0  0
   29.4587   37.0885   59.0815 H   0  0  0  0  0  0  0  0  0  0  0  0
   29.5128   35.4130   59.6797 H   0  0  0  0  0  0  0  0  0  0  0  0
   31.7872   37.4389   59.9119 H   0  0  0  0  0  0  0  0  0  0  0  0
   31.8441   35.7782   60.5494 H   0  0  0  0  0  0  0  0  0  0  0  0
   32.1417   38.3204   62.2130 H   0  0  0  0  0  0  0  0  0  0  0  0
   33.4773   37.2577   61.7068 H   0  0  0  0  0  0  0  0  0  0  0  0
   32.6721   36.7881   64.0482 H   0  0  0  0  0  0  0  0  0  0  0  0
   32.5175   35.3837   62.9615 H   0  0  0  0  0  0  0  0  0  0  0  0
   31.4070   34.9850   66.4226 H   0  0  0  0  0  0  0  0  0  0  0  0
   32.9378   35.6035   68.2442 H   0  0  0  0  0  0  0  0  0  0  0  0
   33.5406   37.9613   68.6053 H   0  0  0  0  0  0  0  0  0  0  0  0
   32.6170   39.7143   67.1492 H   0  0  0  0  0  0  0  0  0  0  0  0
   29.9769   34.9463   62.0487 H   0  0  0  0  0  0  0  0  0  0  0  0
   28.7733   36.1143   62.6483 H   0  0  0  0  0  0  0  0  0  0  0  0
  1  2  1  0  0  0  0
  1 18  1  0  0  0  0
  1 19  1  0  0  0  0
  1 20  1  0  0  0  0
  2  3  1  1  0  0  0
  2 17  1  0  0  0  0
  2  4  1  0  0  0  0
  4  5  1  0  0  0  0
  4 21  1  0  0  0  0
  4 22  1  0  0  0  0
  5  6  1  0  0  0  0
  5 23  1  0  0  0  0
  5 24  1  0  0  0  0
  6  7  1  0  0  0  0
  6 25  1  0  0  0  0
  6 26  1  0  0  0  0
  7  8  1  0  0  0  0
  7 17  1  0  0  0  0
  8  9  2  0  0  0  0
  8 10  1  0  0  0  0
 10 15  2  0  0  0  0
 10 11  1  0  0  0  0
 11 12  2  0  0  0  0
 11 27  1  0  0  0  0
 12 13  1  0  0  0  0
 12 28  1  0  0  0  0
 13 14  2  0  0  0  0
 13 29  1  0  0  0  0
 14 15  1  0  0  0  0
 14 30  1  0  0  0  0
 15 16  1  0  0  0  0
 17 31  1  0  0  0  0
 17 32  1  0  0  0  0
M  END
$$$$
