ZINC000000035831      none
 OpenBabel11202420153D

 29 30  0  0  0  0  0  0  0  0999 V2000
   32.9057   33.5687   54.8178 C   0  0  0  0  0  0  0  0  0  0  0  0
   33.6146   34.8998   55.0751 C   0  0  0  0  0  0  0  0  0  0  0  0
   33.2367   35.8989   53.9797 C   0  0  0  0  0  0  0  0  0  0  0  0
   33.1937   35.4421   56.4166 C   0  0  0  0  0  0  0  0  0  0  0  0
   33.1601   36.8088   56.6277 C   0  0  0  0  0  0  0  0  0  0  0  0
   32.7749   37.3110   57.8540 C   0  0  0  0  0  0  0  0  0  0  0  0
   32.4193   36.4383   58.8810 C   0  0  0  0  0  0  0  0  0  0  0  0
   32.0051   36.9719   60.2012 C   0  0  0  0  0  0  0  0  0  0  0  0
   31.3955   38.1619   60.3368 C   0  0  0  0  0  0  0  0  0  0  0  0
   31.0725   38.4265   62.0487 S   0  0  0  0  0  0  0  0  0  0  0  0
   31.8065   36.8722   62.4304 C   0  0  0  0  0  0  0  0  0  0  0  0
   31.9322   36.3376   63.7024 N   0  0  0  0  0  0  0  0  0  0  0  0
   32.2115   36.3054   61.3363 N   0  0  0  0  0  0  0  0  0  0  0  0
   32.4601   35.0619   58.6642 C   0  0  0  0  0  0  0  0  0  0  0  0
   32.8417   34.5712   57.4322 C   0  0  0  0  0  0  0  0  0  0  0  0
   33.2101   33.1764   53.8475 H   0  0  0  0  0  0  0  0  0  0  0  0
   33.1748   32.8568   55.5981 H   0  0  0  0  0  0  0  0  0  0  0  0
   31.8268   33.7243   54.8245 H   0  0  0  0  0  0  0  0  0  0  0  0
   34.6934   34.7442   55.0684 H   0  0  0  0  0  0  0  0  0  0  0  0
   33.7419   36.8473   54.1629 H   0  0  0  0  0  0  0  0  0  0  0  0
   33.5413   35.5068   53.0093 H   0  0  0  0  0  0  0  0  0  0  0  0
   32.1579   36.0546   53.9864 H   0  0  0  0  0  0  0  0  0  0  0  0
   33.4362   37.4841   55.8314 H   0  0  0  0  0  0  0  0  0  0  0  0
   32.7488   38.3783   58.0176 H   0  0  0  0  0  0  0  0  0  0  0  0
   31.1458   38.8399   59.5340 H   0  0  0  0  0  0  0  0  0  0  0  0
   31.6010   36.8293   64.4701 H   0  0  0  0  0  0  0  0  0  0  0  0
   32.3516   35.4716   63.8253 H   0  0  0  0  0  0  0  0  0  0  0  0
   32.1899   34.3810   59.4578 H   0  0  0  0  0  0  0  0  0  0  0  0
   32.8698   33.5051   57.2618 H   0  0  0  0  0  0  0  0  0  0  0  0
  1  2  1  0  0  0  0
  1 16  1  0  0  0  0
  1 17  1  0  0  0  0
  1 18  1  0  0  0  0
  2  3  1  0  0  0  0
  2  4  1  0  0  0  0
  2 19  1  0  0  0  0
  3 20  1  0  0  0  0
  3 21  1  0  0  0  0
  3 22  1  0  0  0  0
  4 15  2  0  0  0  0
  4  5  1  0  0  0  0
  5  6  2  0  0  0  0
  5 23  1  0  0  0  0
  6  7  1  0  0  0  0
  6 24  1  0  0  0  0
  7  8  1  0  0  0  0
  7 14  2  0  0  0  0
  8 13  1  0  0  0  0
  8  9  2  0  0  0  0
  9 10  1  0  0  0  0
  9 25  1  0  0  0  0
 10 11  1  0  0  0  0
 11 12  1  0  0  0  0
 11 13  2  0  0  0  0
 12 26  1  0  0  0  0
 12 27  1  0  0  0  0
 14 15  1  0  0  0  0
 14 28  1  0  0  0  0
 15 29  1  0  0  0  0
M  END
$$$$
