ZINC000000032514      none
 OpenBabel11202420153D

 33 35  0  0  0  0  0  0  0  0999 V2000
   34.6125   32.0121   53.5125 C   0  0  0  0  0  0  0  0  0  0  0  0
   34.2189   32.9996   54.5805 C   0  0  0  0  0  0  0  0  0  0  0  0
   33.8436   32.6040   55.6637 O   0  0  0  0  0  0  0  0  0  0  0  0
   34.2839   34.3227   54.3320 N   0  0  0  0  0  0  0  0  0  0  0  0
   33.9198   35.2366   55.3204 C   0  0  0  0  0  0  0  0  0  0  0  0
   33.9875   36.6000   55.0606 C   0  0  0  0  0  0  0  0  0  0  0  0
   33.6288   37.5163   56.0322 C   0  0  0  0  0  0  0  0  0  0  0  0
   33.1986   37.0721   57.2746 C   0  0  0  0  0  0  0  0  0  0  0  0
   33.1290   35.6881   57.5421 C   0  0  0  0  0  0  0  0  0  0  0  0
   33.4887   34.7781   56.5648 C   0  0  0  0  0  0  0  0  0  0  0  0
   32.6460   35.5699   58.9346 C   0  0  0  0  0  0  0  0  0  0  0  0
   32.4585   34.5309   59.5346 O   0  0  0  0  0  0  0  0  0  0  0  0
   32.4464   36.8071   59.4240 N   0  0  0  0  0  0  0  0  0  0  0  0
   31.9863   37.0825   60.7189 C   0  0  0  0  0  0  0  0  0  0  0  0
   32.2784   36.2117   61.7605 C   0  0  0  0  0  0  0  0  0  0  0  0
   31.8246   36.4847   63.0361 C   0  0  0  0  0  0  0  0  0  0  0  0
   31.0751   37.6214   63.2769 C   0  0  0  0  0  0  0  0  0  0  0  0
   30.7862   38.4951   62.2420 C   0  0  0  0  0  0  0  0  0  0  0  0
   30.0586   39.6079   62.4808 F   0  0  0  0  0  0  0  0  0  0  0  0
   31.2385   38.2259   60.9622 C   0  0  0  0  0  0  0  0  0  0  0  0
   32.7519   37.7448   58.5096 C   0  0  0  0  0  0  0  0  0  0  0  0
   32.6736   38.9461   58.6733 O   0  0  0  0  0  0  0  0  0  0  0  0
   35.6764   31.7905   53.5967 H   0  0  0  0  0  0  0  0  0  0  0  0
   34.0390   31.0936   53.6378 H   0  0  0  0  0  0  0  0  0  0  0  0
   34.4067   32.4378   52.5303 H   0  0  0  0  0  0  0  0  0  0  0  0
   34.5841   34.6393   53.4657 H   0  0  0  0  0  0  0  0  0  0  0  0
   34.3222   36.9462   54.0938 H   0  0  0  0  0  0  0  0  0  0  0  0
   33.6828   38.5747   55.8245 H   0  0  0  0  0  0  0  0  0  0  0  0
   33.4361   33.7180   56.7644 H   0  0  0  0  0  0  0  0  0  0  0  0
   32.8604   35.3215   61.5733 H   0  0  0  0  0  0  0  0  0  0  0  0
   32.0516   35.8070   63.8458 H   0  0  0  0  0  0  0  0  0  0  0  0
   30.7180   37.8305   64.2744 H   0  0  0  0  0  0  0  0  0  0  0  0
   31.0097   38.9046   60.1539 H   0  0  0  0  0  0  0  0  0  0  0  0
  1  2  1  0  0  0  0
  1 23  1  0  0  0  0
  1 24  1  0  0  0  0
  1 25  1  0  0  0  0
  2  3  2  0  0  0  0
  2  4  1  0  0  0  0
  4  5  1  0  0  0  0
  4 26  1  0  0  0  0
  5 10  2  0  0  0  0
  5  6  1  0  0  0  0
  6  7  2  0  0  0  0
  6 27  1  0  0  0  0
  7  8  1  0  0  0  0
  7 28  1  0  0  0  0
  8 21  1  0  0  0  0
  8  9  2  0  0  0  0
  9 10  1  0  0  0  0
  9 11  1  0  0  0  0
 10 29  1  0  0  0  0
 11 12  2  0  0  0  0
 11 13  1  0  0  0  0
 13 14  1  0  0  0  0
 13 21  1  0  0  0  0
 14 20  2  0  0  0  0
 14 15  1  0  0  0  0
 15 16  2  0  0  0  0
 15 30  1  0  0  0  0
 16 17  1  0  0  0  0
 16 31  1  0  0  0  0
 17 18  2  0  0  0  0
 17 32  1  0  0  0  0
 18 19  1  0  0  0  0
 18 20  1  0  0  0  0
 20 33  1  0  0  0  0
 21 22  2  0  0  0  0
M  END
$$$$
