ZINC000000029033      none
 OpenBabel11202420163D

 43 46  0  0  0  0  0  0  0  0999 V2000
   31.8195   33.9191   59.0914 C   0  0  0  0  0  0  0  0  0  0  0  0
   32.2687   35.3257   58.7904 C   0  0  0  0  0  0  0  0  0  0  0  0
   32.7598   35.7529   57.5930 C   0  0  0  0  0  0  0  0  0  0  0  0
   32.9402   34.9653   56.4106 C   0  0  0  0  0  0  0  0  0  0  0  0
   33.0833   34.3406   55.4728 N   0  0  0  0  0  0  0  0  0  0  0  0
   33.0684   37.1855   57.7542 C   0  0  0  0  0  0  0  0  0  0  0  0
   33.5848   38.1649   56.9089 C   0  0  0  0  0  0  0  0  0  0  0  0
   33.7442   39.4518   57.3736 C   0  0  0  0  0  0  0  0  0  0  0  0
   33.4042   39.7715   58.6804 C   0  0  0  0  0  0  0  0  0  0  0  0
   32.8962   38.8120   59.5285 C   0  0  0  0  0  0  0  0  0  0  0  0
   32.7205   37.5082   59.0757 C   0  0  0  0  0  0  0  0  0  0  0  0
   32.2461   36.3582   59.6713 N   0  0  0  0  0  0  0  0  0  0  0  0
   31.7780   36.2655   61.0564 C   0  0  0  0  0  0  0  0  0  0  0  0
   30.8901   37.4431   61.3664 C   0  0  0  0  0  0  0  0  0  0  0  0
   30.2329   37.9556   60.4853 O   0  0  0  0  0  0  0  0  0  0  0  0
   30.8264   37.9268   62.6228 N   0  0  0  0  0  0  0  0  0  0  0  0
   29.9631   39.0714   62.9241 C   0  0  0  0  0  0  0  0  0  0  0  0
   30.0729   39.4117   64.3881 C   0  0  0  0  0  0  0  0  0  0  0  0
   31.3149   39.4612   64.9934 C   0  0  0  0  0  0  0  0  0  0  0  0
   31.4213   39.7779   66.3348 C   0  0  0  0  0  0  0  0  0  0  0  0
   30.2814   40.0379   67.0784 C   0  0  0  0  0  0  0  0  0  0  0  0
   29.0302   39.9880   66.4686 C   0  0  0  0  0  0  0  0  0  0  0  0
   28.9317   39.6739   65.1227 C   0  0  0  0  0  0  0  0  0  0  0  0
   28.0784   40.2841   67.4010 O   0  0  0  0  0  0  0  0  0  0  0  0
   28.7241   40.1149   68.6767 C   0  0  0  0  0  0  0  0  0  0  0  0
   30.1133   40.3652   68.3928 O   0  0  0  0  0  0  0  0  0  0  0  0
   30.7591   33.8188   58.8594 H   0  0  0  0  0  0  0  0  0  0  0  0
   32.3920   33.2172   58.4850 H   0  0  0  0  0  0  0  0  0  0  0  0
   31.9823   33.7037   60.1474 H   0  0  0  0  0  0  0  0  0  0  0  0
   33.8491   37.9189   55.8911 H   0  0  0  0  0  0  0  0  0  0  0  0
   34.1411   40.2141   56.7197 H   0  0  0  0  0  0  0  0  0  0  0  0
   33.5390   40.7824   59.0361 H   0  0  0  0  0  0  0  0  0  0  0  0
   32.6341   39.0717   60.5435 H   0  0  0  0  0  0  0  0  0  0  0  0
   32.6346   36.2691   61.7305 H   0  0  0  0  0  0  0  0  0  0  0  0
   31.2153   35.3415   61.1888 H   0  0  0  0  0  0  0  0  0  0  0  0
   31.3521   37.5170   63.3275 H   0  0  0  0  0  0  0  0  0  0  0  0
   28.9297   38.8197   62.6862 H   0  0  0  0  0  0  0  0  0  0  0  0
   30.2749   39.9286   62.3274 H   0  0  0  0  0  0  0  0  0  0  0  0
   32.2042   39.2560   64.4161 H   0  0  0  0  0  0  0  0  0  0  0  0
   32.3931   39.8211   66.8039 H   0  0  0  0  0  0  0  0  0  0  0  0
   27.9627   39.6345   64.6474 H   0  0  0  0  0  0  0  0  0  0  0  0
   28.5854   39.0981   69.0442 H   0  0  0  0  0  0  0  0  0  0  0  0
   28.3439   40.8389   69.3975 H   0  0  0  0  0  0  0  0  0  0  0  0
  1  2  1  0  0  0  0
  1 27  1  0  0  0  0
  1 28  1  0  0  0  0
  1 29  1  0  0  0  0
  2 12  1  0  0  0  0
  2  3  2  0  0  0  0
  3  4  1  0  0  0  0
  3  6  1  0  0  0  0
  4  5  3  0  0  0  0
  6 11  2  0  0  0  0
  6  7  1  0  0  0  0
  7  8  2  0  0  0  0
  7 30  1  0  0  0  0
  8  9  1  0  0  0  0
  8 31  1  0  0  0  0
  9 10  2  0  0  0  0
  9 32  1  0  0  0  0
 10 11  1  0  0  0  0
 10 33  1  0  0  0  0
 11 12  1  0  0  0  0
 12 13  1  0  0  0  0
 13 14  1  0  0  0  0
 13 34  1  0  0  0  0
 13 35  1  0  0  0  0
 14 15  2  0  0  0  0
 14 16  1  0  0  0  0
 16 17  1  0  0  0  0
 16 36  1  0  0  0  0
 17 18  1  0  0  0  0
 17 37  1  0  0  0  0
 17 38  1  0  0  0  0
 18 23  2  0  0  0  0
 18 19  1  0  0  0  0
 19 20  2  0  0  0  0
 19 39  1  0  0  0  0
 20 21  1  0  0  0  0
 20 40  1  0  0  0  0
 21 26  1  0  0  0  0
 21 22  2  0  0  0  0
 22 23  1  0  0  0  0
 22 24  1  0  0  0  0
 23 41  1  0  0  0  0
 24 25  1  0  0  0  0
 25 26  1  0  0  0  0
 25 42  1  0  0  0  0
 25 43  1  0  0  0  0
M  END
$$$$
