ZINC000000020519      none
 OpenBabel11202420153D

 22 24  0  0  0  0  0  0  0  0999 V2000
   33.1087   39.8936   58.3675 O   0  0  0  0  0  0  0  0  0  0  0  0
   32.7849   38.8982   58.9896 C   0  0  0  0  0  0  0  0  0  0  0  0
   32.4591   38.9751   60.2948 N   0  0  0  0  0  0  0  0  0  0  0  0
   32.4842   39.8346   60.7437 H   0  0  0  0  0  0  0  0  0  0  0  0
   32.0887   37.8449   61.0069 C   0  0  0  0  0  0  0  0  0  0  0  0
   32.0418   36.6483   60.4246 C   0  0  0  0  0  0  0  0  0  0  0  0
   32.3669   36.4982   59.0813 N   0  0  0  0  0  0  0  0  0  0  0  0
   32.4041   35.4178   58.2599 C   0  0  0  0  0  0  0  0  0  0  0  0
   32.7951   35.8601   57.0380 C   0  0  0  0  0  0  0  0  0  0  0  0
   32.9919   37.1755   57.1089 N   0  0  0  0  0  0  0  0  0  0  0  0
   32.7391   37.5825   58.3353 C   0  0  0  0  0  0  0  0  0  0  0  0
   31.6082   35.5879   61.4193 C   0  0  0  0  0  0  0  0  0  0  0  0
   31.8138   36.2346   62.8056 C   0  0  0  0  0  0  0  0  0  0  0  0
   31.6911   37.7355   62.4676 C   0  0  0  0  0  0  0  0  0  0  0  0
   32.1668   34.3988   58.5281 H   0  0  0  0  0  0  0  0  0  0  0  0
   32.9242   35.2490   56.1569 H   0  0  0  0  0  0  0  0  0  0  0  0
   32.2300   34.6983   61.3201 H   0  0  0  0  0  0  0  0  0  0  0  0
   30.5584   35.3340   61.2716 H   0  0  0  0  0  0  0  0  0  0  0  0
   32.8023   36.0028   63.2022 H   0  0  0  0  0  0  0  0  0  0  0  0
   31.0332   35.9255   63.5008 H   0  0  0  0  0  0  0  0  0  0  0  0
   30.6639   38.0725   62.6069 H   0  0  0  0  0  0  0  0  0  0  0  0
   32.3687   38.3205   63.0895 H   0  0  0  0  0  0  0  0  0  0  0  0
  1  2  2  0  0  0  0
  2 11  1  0  0  0  0
  2  3  1  0  0  0  0
  3  4  1  0  0  0  0
  3  5  1  0  0  0  0
  5 14  1  0  0  0  0
  5  6  2  0  0  0  0
  6  7  1  0  0  0  0
  6 12  1  0  0  0  0
  7 11  1  0  0  0  0
  7  8  1  0  0  0  0
  8  9  2  0  0  0  0
  8 15  1  0  0  0  0
  9 10  1  0  0  0  0
  9 16  1  0  0  0  0
 10 11  2  0  0  0  0
 12 13  1  0  0  0  0
 12 17  1  0  0  0  0
 12 18  1  0  0  0  0
 13 14  1  0  0  0  0
 13 19  1  0  0  0  0
 13 20  1  0  0  0  0
 14 21  1  0  0  0  0
 14 22  1  0  0  0  0
M  END
$$$$
