ZINC000000029891      none
 OpenBabel11202420163D

 22 22  0  0  0  0  0  0  0  0999 V2000
   33.8633   33.7479   53.6014 C   0  0  0  0  0  0  0  0  0  0  0  0
   33.2619   35.1537   53.6555 C   0  0  0  0  0  0  0  0  0  0  0  0
   32.8740   35.4662   55.0332 N   0  0  0  0  0  0  0  0  0  0  0  0
   33.4252   36.5210   55.6656 C   0  0  0  0  0  0  0  0  0  0  0  0
   34.2442   37.2131   55.0929 O   0  0  0  0  0  0  0  0  0  0  0  0
   33.0339   36.8364   57.0554 C   0  0  0  0  0  0  0  0  0  0  0  0
   33.1185   38.1481   57.5268 C   0  0  0  0  0  0  0  0  0  0  0  0
   32.7522   38.4369   58.8244 C   0  0  0  0  0  0  0  0  0  0  0  0
   32.3013   37.4291   59.6606 C   0  0  0  0  0  0  0  0  0  0  0  0
   31.8431   37.8006   61.2933 Cl  0  0  0  0  0  0  0  0  0  0  0  0
   32.2150   36.1251   59.1991 C   0  0  0  0  0  0  0  0  0  0  0  0
   31.6487   34.8681   60.2541 Cl  0  0  0  0  0  0  0  0  0  0  0  0
   32.5730   35.8253   57.9001 C   0  0  0  0  0  0  0  0  0  0  0  0
   34.7417   33.7035   54.2452 H   0  0  0  0  0  0  0  0  0  0  0  0
   33.1246   33.0232   53.9442 H   0  0  0  0  0  0  0  0  0  0  0  0
   34.1519   33.5153   52.5764 H   0  0  0  0  0  0  0  0  0  0  0  0
   34.0005   35.8783   53.3128 H   0  0  0  0  0  0  0  0  0  0  0  0
   32.3834   35.1980   53.0118 H   0  0  0  0  0  0  0  0  0  0  0  0
   32.2205   34.9140   55.4902 H   0  0  0  0  0  0  0  0  0  0  0  0
   33.4699   38.9352   56.8760 H   0  0  0  0  0  0  0  0  0  0  0  0
   32.8174   39.4513   59.1895 H   0  0  0  0  0  0  0  0  0  0  0  0
   32.5010   34.8098   57.5395 H   0  0  0  0  0  0  0  0  0  0  0  0
  1  2  1  0  0  0  0
  1 14  1  0  0  0  0
  1 15  1  0  0  0  0
  1 16  1  0  0  0  0
  2  3  1  0  0  0  0
  2 17  1  0  0  0  0
  2 18  1  0  0  0  0
  3  4  1  0  0  0  0
  3 19  1  0  0  0  0
  4  5  2  0  0  0  0
  4  6  1  0  0  0  0
  6 13  2  0  0  0  0
  6  7  1  0  0  0  0
  7  8  2  0  0  0  0
  7 20  1  0  0  0  0
  8  9  1  0  0  0  0
  8 21  1  0  0  0  0
  9 10  1  0  0  0  0
  9 11  2  0  0  0  0
 11 12  1  0  0  0  0
 11 13  1  0  0  0  0
 13 22  1  0  0  0  0
M  END
$$$$
