ZINC000000032376      none
 OpenBabel11202420153D

 47 49  0  0  0  0  0  0  0  0999 V2000
   29.7724   39.3090   65.1306 C   0  0  0  0  0  0  0  0  0  0  0  0
   31.0225   38.4971   64.9088 C   0  0  0  0  0  0  0  0  0  0  0  0
   31.7862   38.0768   65.9992 C   0  0  0  0  0  0  0  0  0  0  0  0
   31.3720   38.4264   67.3747 C   0  0  0  0  0  0  0  0  0  0  0  0
   30.6358   37.6842   67.9949 O   0  0  0  0  0  0  0  0  0  0  0  0
   31.8107   39.5680   67.9409 N   0  0  0  0  0  0  0  0  0  0  0  0
   31.4032   39.9319   69.3047 C   0  0  0  0  0  0  0  0  0  0  0  0
   30.8090   41.3391   69.2876 C   0  0  0  0  0  0  0  0  0  0  0  0
   31.8104   42.3057   68.6514 C   0  0  0  0  0  0  0  0  0  0  0  0
   31.2298   43.7212   68.6620 C   0  0  0  0  0  0  0  0  0  0  0  0
   32.2162   44.6735   68.0366 C   0  0  0  0  0  0  0  0  0  0  0  0
   31.7646   45.7959   67.3678 C   0  0  0  0  0  0  0  0  0  0  0  0
   32.6695   46.6720   66.7983 C   0  0  0  0  0  0  0  0  0  0  0  0
   34.0259   46.4202   66.8885 C   0  0  0  0  0  0  0  0  0  0  0  0
   34.4773   45.2950   67.5527 C   0  0  0  0  0  0  0  0  0  0  0  0
   33.5725   44.4217   68.1267 C   0  0  0  0  0  0  0  0  0  0  0  0
   32.0876   41.8790   67.2082 C   0  0  0  0  0  0  0  0  0  0  0  0
   32.7010   40.4752   67.2038 C   0  0  0  0  0  0  0  0  0  0  0  0
   32.9457   37.3302   65.7848 C   0  0  0  0  0  0  0  0  0  0  0  0
   33.3269   37.0077   64.4985 C   0  0  0  0  0  0  0  0  0  0  0  0
   32.5626   37.4226   63.4228 C   0  0  0  0  0  0  0  0  0  0  0  0
   31.4118   38.1632   63.6284 C   0  0  0  0  0  0  0  0  0  0  0  0
   30.6001   38.6030   62.4714 N   0  0  0  0  0  0  0  0  0  0  0  0
   29.5896   39.2591   62.6507 O   0  0  0  0  0  0  0  0  0  0  0  0
   30.9453   38.3132   61.3399 O   0  0  0  0  0  0  0  0  0  0  0  0
   28.9044   38.6496   65.1200 H   0  0  0  0  0  0  0  0  0  0  0  0
   29.8332   39.8139   66.0946 H   0  0  0  0  0  0  0  0  0  0  0  0
   29.6751   40.0503   64.3375 H   0  0  0  0  0  0  0  0  0  0  0  0
   30.6549   39.2251   69.6633 H   0  0  0  0  0  0  0  0  0  0  0  0
   32.2717   39.9131   69.9629 H   0  0  0  0  0  0  0  0  0  0  0  0
   30.5941   41.6571   70.3078 H   0  0  0  0  0  0  0  0  0  0  0  0
   29.8873   41.3351   68.7057 H   0  0  0  0  0  0  0  0  0  0  0  0
   32.7406   42.2905   69.2196 H   0  0  0  0  0  0  0  0  0  0  0  0
   30.2997   43.7366   68.0939 H   0  0  0  0  0  0  0  0  0  0  0  0
   31.0327   44.0255   69.6900 H   0  0  0  0  0  0  0  0  0  0  0  0
   30.7048   45.9902   67.2936 H   0  0  0  0  0  0  0  0  0  0  0  0
   32.3169   47.5509   66.2791 H   0  0  0  0  0  0  0  0  0  0  0  0
   34.7327   47.1023   66.4397 H   0  0  0  0  0  0  0  0  0  0  0  0
   35.5368   45.0982   67.6229 H   0  0  0  0  0  0  0  0  0  0  0  0
   33.9252   43.5425   68.6453 H   0  0  0  0  0  0  0  0  0  0  0  0
   32.7831   42.5812   66.7484 H   0  0  0  0  0  0  0  0  0  0  0  0
   31.1544   41.8700   66.6453 H   0  0  0  0  0  0  0  0  0  0  0  0
   33.6775   40.5016   67.6872 H   0  0  0  0  0  0  0  0  0  0  0  0
   32.8107   40.1254   66.1773 H   0  0  0  0  0  0  0  0  0  0  0  0
   33.5430   37.0053   66.6239 H   0  0  0  0  0  0  0  0  0  0  0  0
   34.2238   36.4297   64.3314 H   0  0  0  0  0  0  0  0  0  0  0  0
   32.8655   37.1679   62.4179 H   0  0  0  0  0  0  0  0  0  0  0  0
  1  2  1  0  0  0  0
  1 26  1  0  0  0  0
  1 27  1  0  0  0  0
  1 28  1  0  0  0  0
  2 22  2  0  0  0  0
  2  3  1  0  0  0  0
  3  4  1  0  0  0  0
  3 19  2  0  0  0  0
  4  5  2  0  0  0  0
  4  6  1  0  0  0  0
  6 18  1  0  0  0  0
  6  7  1  0  0  0  0
  7  8  1  0  0  0  0
  7 29  1  0  0  0  0
  7 30  1  0  0  0  0
  8  9  1  0  0  0  0
  8 31  1  0  0  0  0
  8 32  1  0  0  0  0
  9 10  1  0  0  0  0
  9 17  1  0  0  0  0
  9 33  1  0  0  0  0
 10 11  1  0  0  0  0
 10 34  1  0  0  0  0
 10 35  1  0  0  0  0
 11 16  2  0  0  0  0
 11 12  1  0  0  0  0
 12 13  2  0  0  0  0
 12 36  1  0  0  0  0
 13 14  1  0  0  0  0
 13 37  1  0  0  0  0
 14 15  2  0  0  0  0
 14 38  1  0  0  0  0
 15 16  1  0  0  0  0
 15 39  1  0  0  0  0
 16 40  1  0  0  0  0
 17 18  1  0  0  0  0
 17 41  1  0  0  0  0
 17 42  1  0  0  0  0
 18 43  1  0  0  0  0
 18 44  1  0  0  0  0
 19 20  1  0  0  0  0
 19 45  1  0  0  0  0
 20 21  2  0  0  0  0
 20 46  1  0  0  0  0
 21 22  1  0  0  0  0
 21 47  1  0  0  0  0
 22 23  1  0  0  0  0
 23 24  2  0  0  0  0
 23 25  2  0  0  0  0
M  END
$$$$
