ZINC000000000867      none
 OpenBabel11202420153D

 33 34  0  0  0  0  0  0  0  0999 V2000
   34.9523   32.8372   55.5882 C   0  0  0  0  0  0  0  0  0  0  0  0
   34.5643   34.2589   55.2734 C   0  0  0  0  0  0  0  0  0  0  0  0
   35.3974   35.0384   54.8754 O   0  0  0  0  0  0  0  0  0  0  0  0
   33.2932   34.6594   55.4349 O   0  0  0  0  0  0  0  0  0  0  0  0
   32.9550   35.1634   56.6508 C   0  0  0  0  0  0  0  0  0  0  0  0
   32.4861   34.3284   57.6390 C   0  0  0  0  0  0  0  0  0  0  0  0
   32.1306   34.8299   58.8876 C   0  0  0  0  0  0  0  0  0  0  0  0
   31.6151   33.8904   59.9472 C   0  0  0  0  0  0  0  0  0  0  0  0
   32.2489   36.1717   59.1689 C   0  0  0  0  0  0  0  0  0  0  0  0
   31.9019   36.6454   60.3945 O   0  0  0  0  0  0  0  0  0  0  0  0
   30.6284   37.0374   60.5581 C   0  0  0  0  0  0  0  0  0  0  0  0
   30.1705   37.5738   61.8899 C   0  0  0  0  0  0  0  0  0  0  0  0
   29.8495   36.9600   59.6378 O   0  0  0  0  0  0  0  0  0  0  0  0
   32.7310   37.0525   58.1799 C   0  0  0  0  0  0  0  0  0  0  0  0
   32.8649   38.4276   58.4334 C   0  0  0  0  0  0  0  0  0  0  0  0
   33.3343   39.2506   57.4560 C   0  0  0  0  0  0  0  0  0  0  0  0
   33.6848   38.7493   56.2038 C   0  0  0  0  0  0  0  0  0  0  0  0
   33.5677   37.4225   55.9229 C   0  0  0  0  0  0  0  0  0  0  0  0
   33.0879   36.5429   56.9072 C   0  0  0  0  0  0  0  0  0  0  0  0
   34.0750   32.2885   55.9309 H   0  0  0  0  0  0  0  0  0  0  0  0
   35.3505   32.3621   54.6916 H   0  0  0  0  0  0  0  0  0  0  0  0
   35.7119   32.8324   56.3698 H   0  0  0  0  0  0  0  0  0  0  0  0
   32.3892   33.2709   57.4419 H   0  0  0  0  0  0  0  0  0  0  0  0
   30.5302   33.8179   59.8720 H   0  0  0  0  0  0  0  0  0  0  0  0
   32.0559   32.9039   59.8038 H   0  0  0  0  0  0  0  0  0  0  0  0
   31.8865   34.2698   60.9324 H   0  0  0  0  0  0  0  0  0  0  0  0
   30.7532   38.4590   62.1449 H   0  0  0  0  0  0  0  0  0  0  0  0
   29.1147   37.8384   61.8314 H   0  0  0  0  0  0  0  0  0  0  0  0
   30.3123   36.8122   62.6566 H   0  0  0  0  0  0  0  0  0  0  0  0
   32.5971   38.8299   59.3993 H   0  0  0  0  0  0  0  0  0  0  0  0
   33.4362   40.3074   57.6537 H   0  0  0  0  0  0  0  0  0  0  0  0
   34.0543   39.4233   55.4452 H   0  0  0  0  0  0  0  0  0  0  0  0
   33.8430   37.0480   54.9481 H   0  0  0  0  0  0  0  0  0  0  0  0
  1  2  1  0  0  0  0
  1 20  1  0  0  0  0
  1 21  1  0  0  0  0
  1 22  1  0  0  0  0
  2  3  2  0  0  0  0
  2  4  1  0  0  0  0
  4  5  1  0  0  0  0
  5 19  2  0  0  0  0
  5  6  1  0  0  0  0
  6  7  2  0  0  0  0
  6 23  1  0  0  0  0
  7  8  1  0  0  0  0
  7  9  1  0  0  0  0
  8 24  1  0  0  0  0
  8 25  1  0  0  0  0
  8 26  1  0  0  0  0
  9 10  1  0  0  0  0
  9 14  2  0  0  0  0
 10 11  1  0  0  0  0
 11 12  1  0  0  0  0
 11 13  2  0  0  0  0
 12 27  1  0  0  0  0
 12 28  1  0  0  0  0
 12 29  1  0  0  0  0
 14 19  1  0  0  0  0
 14 15  1  0  0  0  0
 15 16  2  0  0  0  0
 15 30  1  0  0  0  0
 16 17  1  0  0  0  0
 16 31  1  0  0  0  0
 17 18  2  0  0  0  0
 17 32  1  0  0  0  0
 18 19  1  0  0  0  0
 18 33  1  0  0  0  0
M  END
$$$$
