ZINC000000031600      none
 OpenBabel11202420163D

 42 44  0  0  0  0  0  0  0  0999 V2000
   32.6308   35.6112   61.1389 O   0  0  0  0  0  0  0  0  0  0  0  0
   32.0629   36.6737   61.0026 C   0  0  0  0  0  0  0  0  0  0  0  0
   32.8403   37.8954   60.5855 C   0  0  0  0  0  0  0  0  0  0  0  0
   32.8512   37.9949   59.0818 C   0  0  0  0  0  0  0  0  0  0  0  0
   32.9133   39.2336   58.4716 C   0  0  0  0  0  0  0  0  0  0  0  0
   32.9281   39.3245   57.0923 C   0  0  0  0  0  0  0  0  0  0  0  0
   32.8704   38.1774   56.3232 C   0  0  0  0  0  0  0  0  0  0  0  0
   32.8030   36.9389   56.9335 C   0  0  0  0  0  0  0  0  0  0  0  0
   32.7934   36.8477   58.3129 C   0  0  0  0  0  0  0  0  0  0  0  0
   30.6133   36.7703   61.2446 C   0  0  0  0  0  0  0  0  0  0  0  0
   29.7117   36.5548   60.2025 C   0  0  0  0  0  0  0  0  0  0  0  0
   28.3528   36.6463   60.4354 C   0  0  0  0  0  0  0  0  0  0  0  0
   27.8775   36.9512   61.6988 C   0  0  0  0  0  0  0  0  0  0  0  0
   28.7560   37.1682   62.7446 C   0  0  0  0  0  0  0  0  0  0  0  0
   30.1280   37.0807   62.5307 C   0  0  0  0  0  0  0  0  0  0  0  0
   31.0716   37.3116   63.6468 C   0  0  0  0  0  0  0  0  0  0  0  0
   31.8892   38.2080   63.5756 O   0  0  0  0  0  0  0  0  0  0  0  0
   31.0243   36.5279   64.7422 N   0  0  0  0  0  0  0  0  0  0  0  0
   31.9562   36.7345   65.8622 C   0  0  0  0  0  0  0  0  0  0  0  0
   31.1364   36.8070   67.1605 C   0  0  0  0  0  0  0  0  0  0  0  0
   30.2885   35.6591   67.2443 O   0  0  0  0  0  0  0  0  0  0  0  0
   29.3202   35.5689   66.1965 C   0  0  0  0  0  0  0  0  0  0  0  0
   30.0432   35.4366   64.8511 C   0  0  0  0  0  0  0  0  0  0  0  0
   32.3714   38.7853   61.0051 H   0  0  0  0  0  0  0  0  0  0  0  0
   33.8640   37.8171   60.9518 H   0  0  0  0  0  0  0  0  0  0  0  0
   32.9540   40.1301   59.0723 H   0  0  0  0  0  0  0  0  0  0  0  0
   32.9804   40.2922   56.6154 H   0  0  0  0  0  0  0  0  0  0  0  0
   32.8774   38.2487   55.2457 H   0  0  0  0  0  0  0  0  0  0  0  0
   32.7574   36.0426   56.3327 H   0  0  0  0  0  0  0  0  0  0  0  0
   32.7404   35.8799   58.7896 H   0  0  0  0  0  0  0  0  0  0  0  0
   30.0756   36.3168   59.2138 H   0  0  0  0  0  0  0  0  0  0  0  0
   27.6574   36.4832   59.6254 H   0  0  0  0  0  0  0  0  0  0  0  0
   26.8134   37.0201   61.8693 H   0  0  0  0  0  0  0  0  0  0  0  0
   28.3769   37.4056   63.7276 H   0  0  0  0  0  0  0  0  0  0  0  0
   32.6582   35.9023   65.9139 H   0  0  0  0  0  0  0  0  0  0  0  0
   32.5017   37.6671   65.7185 H   0  0  0  0  0  0  0  0  0  0  0  0
   30.5269   37.7105   67.1592 H   0  0  0  0  0  0  0  0  0  0  0  0
   31.8115   36.8244   68.0162 H   0  0  0  0  0  0  0  0  0  0  0  0
   28.7040   36.4681   66.1917 H   0  0  0  0  0  0  0  0  0  0  0  0
   28.6885   34.6953   66.3577 H   0  0  0  0  0  0  0  0  0  0  0  0
   29.3213   35.5093   64.0377 H   0  0  0  0  0  0  0  0  0  0  0  0
   30.5558   34.4759   64.8022 H   0  0  0  0  0  0  0  0  0  0  0  0
  1  2  2  0  0  0  0
  2  3  1  0  0  0  0
  2 10  1  0  0  0  0
  3  4  1  0  0  0  0
  3 24  1  0  0  0  0
  3 25  1  0  0  0  0
  4  9  2  0  0  0  0
  4  5  1  0  0  0  0
  5  6  2  0  0  0  0
  5 26  1  0  0  0  0
  6  7  1  0  0  0  0
  6 27  1  0  0  0  0
  7  8  2  0  0  0  0
  7 28  1  0  0  0  0
  8  9  1  0  0  0  0
  8 29  1  0  0  0  0
  9 30  1  0  0  0  0
 10 15  2  0  0  0  0
 10 11  1  0  0  0  0
 11 12  2  0  0  0  0
 11 31  1  0  0  0  0
 12 13  1  0  0  0  0
 12 32  1  0  0  0  0
 13 14  2  0  0  0  0
 13 33  1  0  0  0  0
 14 15  1  0  0  0  0
 14 34  1  0  0  0  0
 15 16  1  0  0  0  0
 16 17  2  0  0  0  0
 16 18  1  0  0  0  0
 18 23  1  0  0  0  0
 18 19  1  0  0  0  0
 19 20  1  0  0  0  0
 19 35  1  0  0  0  0
 19 36  1  0  0  0  0
 20 21  1  0  0  0  0
 20 37  1  0  0  0  0
 20 38  1  0  0  0  0
 21 22  1  0  0  0  0
 22 23  1  0  0  0  0
 22 39  1  0  0  0  0
 22 40  1  0  0  0  0
 23 41  1  0  0  0  0
 23 42  1  0  0  0  0
M  END
$$$$
