ZINC000000044646      none
 OpenBabel11202420153D

 40 42  0  0  0  0  0  0  0  0999 V2000
   32.6686   34.1395   53.6405 C   0  0  0  0  0  0  0  0  0  0  0  0
   32.6173   35.5637   54.1971 C   0  0  0  0  0  0  0  0  0  0  0  0
   33.9624   35.9089   54.8393 C   0  0  0  0  0  0  0  0  0  0  0  0
   33.9120   37.3118   55.3876 C   0  0  0  0  0  0  0  0  0  0  0  0
   34.2699   38.3741   54.6201 C   0  0  0  0  0  0  0  0  0  0  0  0
   34.2135   39.6771   55.1562 C   0  0  0  0  0  0  0  0  0  0  0  0
   34.5371   40.6207   54.4575 O   0  0  0  0  0  0  0  0  0  0  0  0
   33.8129   39.9041   56.4170 O   0  0  0  0  0  0  0  0  0  0  0  0
   33.4436   38.8930   57.2321 C   0  0  0  0  0  0  0  0  0  0  0  0
   33.0317   39.1447   58.5321 C   0  0  0  0  0  0  0  0  0  0  0  0
   32.6576   38.0923   59.3514 C   0  0  0  0  0  0  0  0  0  0  0  0
   32.2551   38.3399   60.6239 O   0  0  0  0  0  0  0  0  0  0  0  0
   31.8823   37.2117   61.4178 C   0  0  0  0  0  0  0  0  0  0  0  0
   31.4672   37.6777   62.7895 C   0  0  0  0  0  0  0  0  0  0  0  0
   30.6291   38.7687   62.9248 C   0  0  0  0  0  0  0  0  0  0  0  0
   30.2491   39.1967   64.1830 C   0  0  0  0  0  0  0  0  0  0  0  0
   30.7065   38.5330   65.3069 C   0  0  0  0  0  0  0  0  0  0  0  0
   31.5437   37.4425   65.1727 C   0  0  0  0  0  0  0  0  0  0  0  0
   31.9248   37.0138   63.9135 C   0  0  0  0  0  0  0  0  0  0  0  0
   32.9774   35.6437   63.7443 Cl  0  0  0  0  0  0  0  0  0  0  0  0
   32.6963   36.7806   58.8818 C   0  0  0  0  0  0  0  0  0  0  0  0
   33.0944   36.5156   57.6037 C   0  0  0  0  0  0  0  0  0  0  0  0
   33.4755   37.5669   56.7619 C   0  0  0  0  0  0  0  0  0  0  0  0
   31.7102   33.8936   53.1829 H   0  0  0  0  0  0  0  0  0  0  0  0
   33.4573   34.0704   52.8913 H   0  0  0  0  0  0  0  0  0  0  0  0
   32.8745   33.4401   54.4505 H   0  0  0  0  0  0  0  0  0  0  0  0
   31.8287   35.6330   54.9462 H   0  0  0  0  0  0  0  0  0  0  0  0
   32.4114   36.2634   53.3869 H   0  0  0  0  0  0  0  0  0  0  0  0
   34.7511   35.8398   54.0901 H   0  0  0  0  0  0  0  0  0  0  0  0
   34.1684   35.2094   55.6494 H   0  0  0  0  0  0  0  0  0  0  0  0
   34.5968   38.2211   53.6023 H   0  0  0  0  0  0  0  0  0  0  0  0
   33.0031   40.1579   58.9048 H   0  0  0  0  0  0  0  0  0  0  0  0
   32.7308   36.5332   61.5058 H   0  0  0  0  0  0  0  0  0  0  0  0
   31.0496   36.6926   60.9429 H   0  0  0  0  0  0  0  0  0  0  0  0
   30.2714   39.2869   62.0473 H   0  0  0  0  0  0  0  0  0  0  0  0
   29.5946   40.0494   64.2881 H   0  0  0  0  0  0  0  0  0  0  0  0
   30.4091   38.8676   66.2897 H   0  0  0  0  0  0  0  0  0  0  0  0
   31.9042   36.9273   66.0507 H   0  0  0  0  0  0  0  0  0  0  0  0
   32.4062   35.9690   59.5326 H   0  0  0  0  0  0  0  0  0  0  0  0
   33.1185   35.4976   57.2439 H   0  0  0  0  0  0  0  0  0  0  0  0
  1  2  1  0  0  0  0
  1 24  1  0  0  0  0
  1 25  1  0  0  0  0
  1 26  1  0  0  0  0
  2  3  1  0  0  0  0
  2 27  1  0  0  0  0
  2 28  1  0  0  0  0
  3  4  1  0  0  0  0
  3 29  1  0  0  0  0
  3 30  1  0  0  0  0
  4 23  1  0  0  0  0
  4  5  2  0  0  0  0
  5  6  1  0  0  0  0
  5 31  1  0  0  0  0
  6  7  2  0  0  0  0
  6  8  1  0  0  0  0
  8  9  1  0  0  0  0
  9 23  2  0  0  0  0
  9 10  1  0  0  0  0
 10 11  2  0  0  0  0
 10 32  1  0  0  0  0
 11 12  1  0  0  0  0
 11 21  1  0  0  0  0
 12 13  1  0  0  0  0
 13 14  1  0  0  0  0
 13 33  1  0  0  0  0
 13 34  1  0  0  0  0
 14 19  2  0  0  0  0
 14 15  1  0  0  0  0
 15 16  2  0  0  0  0
 15 35  1  0  0  0  0
 16 17  1  0  0  0  0
 16 36  1  0  0  0  0
 17 18  2  0  0  0  0
 17 37  1  0  0  0  0
 18 19  1  0  0  0  0
 18 38  1  0  0  0  0
 19 20  1  0  0  0  0
 21 22  2  0  0  0  0
 21 39  1  0  0  0  0
 22 23  1  0  0  0  0
 22 40  1  0  0  0  0
M  END
$$$$
