ZINC000000023311      none
 OpenBabel11202420153D

 29 30  0  0  0  0  0  0  0  0999 V2000
   30.6031   37.2484   64.0059 C   0  0  0  0  0  0  0  0  0  0  0  0
   31.4497   36.6707   62.9534 N   0  0  0  0  0  0  0  0  0  0  0  0
   32.7230   36.1903   63.5066 C   0  0  0  0  0  0  0  0  0  0  0  0
   30.7455   35.5952   62.2425 C   0  0  0  0  0  0  0  0  0  0  0  0
   31.4006   35.3642   60.9051 C   0  0  0  0  0  0  0  0  0  0  0  0
   31.6674   34.1363   60.4477 C   0  0  0  0  0  0  0  0  0  0  0  0
   32.4263   34.2909   58.8644 S   0  0  0  0  0  0  0  0  0  0  0  0
   32.3038   36.0444   58.9826 C   0  0  0  0  0  0  0  0  0  0  0  0
   32.7575   37.0072   57.9561 C   0  0  0  0  0  0  0  0  0  0  0  0
   32.6004   38.3783   58.1634 C   0  0  0  0  0  0  0  0  0  0  0  0
   33.0306   39.2717   57.2040 C   0  0  0  0  0  0  0  0  0  0  0  0
   33.6067   38.8105   56.0338 C   0  0  0  0  0  0  0  0  0  0  0  0
   33.7601   37.4523   55.8197 C   0  0  0  0  0  0  0  0  0  0  0  0
   33.3394   36.5486   56.7736 C   0  0  0  0  0  0  0  0  0  0  0  0
   31.7445   36.3561   60.1165 N   0  0  0  0  0  0  0  0  0  0  0  0
   30.3347   36.4726   64.7230 H   0  0  0  0  0  0  0  0  0  0  0  0
   31.1487   38.0419   64.5163 H   0  0  0  0  0  0  0  0  0  0  0  0
   29.6976   37.6591   63.5592 H   0  0  0  0  0  0  0  0  0  0  0  0
   33.3587   35.8319   62.6968 H   0  0  0  0  0  0  0  0  0  0  0  0
   33.2236   37.0063   64.0275 H   0  0  0  0  0  0  0  0  0  0  0  0
   32.5314   35.3761   64.2056 H   0  0  0  0  0  0  0  0  0  0  0  0
   29.7041   35.8800   62.0926 H   0  0  0  0  0  0  0  0  0  0  0  0
   30.7905   34.6795   62.8320 H   0  0  0  0  0  0  0  0  0  0  0  0
   31.4547   33.2097   60.9602 H   0  0  0  0  0  0  0  0  0  0  0  0
   32.1468   38.7394   59.0746 H   0  0  0  0  0  0  0  0  0  0  0  0
   32.9136   40.3332   57.3651 H   0  0  0  0  0  0  0  0  0  0  0  0
   33.9377   39.5138   55.2840 H   0  0  0  0  0  0  0  0  0  0  0  0
   34.2106   37.0987   54.9040 H   0  0  0  0  0  0  0  0  0  0  0  0
   33.4603   35.4887   56.6055 H   0  0  0  0  0  0  0  0  0  0  0  0
  1  2  1  0  0  0  0
  1 16  1  0  0  0  0
  1 17  1  0  0  0  0
  1 18  1  0  0  0  0
  2  3  1  0  0  0  0
  2  4  1  0  0  0  0
  3 19  1  0  0  0  0
  3 20  1  0  0  0  0
  3 21  1  0  0  0  0
  4  5  1  0  0  0  0
  4 22  1  0  0  0  0
  4 23  1  0  0  0  0
  5 15  1  0  0  0  0
  5  6  2  0  0  0  0
  6  7  1  0  0  0  0
  6 24  1  0  0  0  0
  7  8  1  0  0  0  0
  8  9  1  0  0  0  0
  8 15  2  0  0  0  0
  9 14  2  0  0  0  0
  9 10  1  0  0  0  0
 10 11  2  0  0  0  0
 10 25  1  0  0  0  0
 11 12  1  0  0  0  0
 11 26  1  0  0  0  0
 12 13  2  0  0  0  0
 12 27  1  0  0  0  0
 13 14  1  0  0  0  0
 13 28  1  0  0  0  0
 14 29  1  0  0  0  0
M  END
$$$$
