ZINC000000015679      none
 OpenBabel11202420153D

 37 39  0  0  1  0  0  0  0  0999 V2000
   28.9403   33.3049   66.5230 C   0  0  0  0  0  0  0  0  0  0  0  0
   29.1391   34.6067   65.7442 C   0  0  0  0  0  0  0  0  0  0  0  0
   29.9112   34.3173   64.4554 C   0  0  0  0  0  0  0  0  0  0  0  0
   30.1100   35.6191   63.6766 C   0  0  2  0  0  0  0  0  0  0  0  0
   29.2023   36.2198   63.7352 H   0  0  0  0  0  0  0  0  0  0  0  0
   30.4097   35.3010   62.2344 C   0  0  0  0  0  0  0  0  0  0  0  0
   31.0635   34.1286   61.8872 C   0  0  0  0  0  0  0  0  0  0  0  0
   31.3167   33.8683   60.5538 C   0  0  0  0  0  0  0  0  0  0  0  0
   30.9537   34.7242   59.6186 N   0  0  0  0  0  0  0  0  0  0  0  0
   30.3351   35.8512   59.9123 C   0  0  0  0  0  0  0  0  0  0  0  0
   30.0433   36.1764   61.2235 C   0  0  0  0  0  0  0  0  0  0  0  0
   31.2290   36.3678   64.2543 N   0  0  0  0  0  0  0  0  0  0  0  0
   32.5161   35.9125   64.3443 C   0  0  0  0  0  0  0  0  0  0  0  0
   33.2923   36.8451   64.9188 C   0  0  0  0  0  0  0  0  0  0  0  0
   32.4304   37.9888   65.2272 C   0  0  0  0  0  0  0  0  0  0  0  0
   32.6469   39.2362   65.8158 C   0  0  0  0  0  0  0  0  0  0  0  0
   31.6039   40.1061   65.9647 C   0  0  0  0  0  0  0  0  0  0  0  0
   30.3297   39.7595   65.5359 C   0  0  0  0  0  0  0  0  0  0  0  0
   30.0939   38.5340   64.9528 C   0  0  0  0  0  0  0  0  0  0  0  0
   31.1414   37.6327   64.7909 C   0  0  0  0  0  0  0  0  0  0  0  0
   28.3771   32.5989   65.9127 H   0  0  0  0  0  0  0  0  0  0  0  0
   29.9120   32.8773   66.7699 H   0  0  0  0  0  0  0  0  0  0  0  0
   28.3901   33.5112   67.4411 H   0  0  0  0  0  0  0  0  0  0  0  0
   29.7022   35.3129   66.3543 H   0  0  0  0  0  0  0  0  0  0  0  0
   28.1673   35.0344   65.4971 H   0  0  0  0  0  0  0  0  0  0  0  0
   29.3480   33.6112   63.8452 H   0  0  0  0  0  0  0  0  0  0  0  0
   30.8829   33.8897   64.7024 H   0  0  0  0  0  0  0  0  0  0  0  0
   31.3675   33.4259   62.6490 H   0  0  0  0  0  0  0  0  0  0  0  0
   31.8213   32.9550   60.2747 H   0  0  0  0  0  0  0  0  0  0  0  0
   30.0531   36.5277   59.1192 H   0  0  0  0  0  0  0  0  0  0  0  0
   29.5359   37.1006   61.4578 H   0  0  0  0  0  0  0  0  0  0  0  0
   32.8582   34.9476   64.0000 H   0  0  0  0  0  0  0  0  0  0  0  0
   34.3511   36.7669   65.1165 H   0  0  0  0  0  0  0  0  0  0  0  0
   33.6355   39.5129   66.1515 H   0  0  0  0  0  0  0  0  0  0  0  0
   31.7719   41.0710   66.4198 H   0  0  0  0  0  0  0  0  0  0  0  0
   29.5154   40.4578   65.6603 H   0  0  0  0  0  0  0  0  0  0  0  0
   29.0992   38.2738   64.6223 H   0  0  0  0  0  0  0  0  0  0  0  0
  1  2  1  0  0  0  0
  1 21  1  0  0  0  0
  1 22  1  0  0  0  0
  1 23  1  0  0  0  0
  2  3  1  0  0  0  0
  2 24  1  0  0  0  0
  2 25  1  0  0  0  0
  3  4  1  0  0  0  0
  3 26  1  0  0  0  0
  3 27  1  0  0  0  0
  4  5  1  1  0  0  0
  4  6  1  0  0  0  0
  4 12  1  0  0  0  0
  6 11  2  0  0  0  0
  6  7  1  0  0  0  0
  7  8  2  0  0  0  0
  7 28  1  0  0  0  0
  8  9  1  0  0  0  0
  8 29  1  0  0  0  0
  9 10  2  0  0  0  0
 10 11  1  0  0  0  0
 10 30  1  0  0  0  0
 11 31  1  0  0  0  0
 12 20  1  0  0  0  0
 12 13  1  0  0  0  0
 13 14  2  0  0  0  0
 13 32  1  0  0  0  0
 14 15  1  0  0  0  0
 14 33  1  0  0  0  0
 15 20  2  0  0  0  0
 15 16  1  0  0  0  0
 16 17  2  0  0  0  0
 16 34  1  0  0  0  0
 17 18  1  0  0  0  0
 17 35  1  0  0  0  0
 18 19  2  0  0  0  0
 18 36  1  0  0  0  0
 19 20  1  0  0  0  0
 19 37  1  0  0  0  0
M  END
$$$$
