ZINC000000021911      none
 OpenBabel11202420153D

 45 49  0  0  0  0  0  0  0  0999 V2000
   29.1760   31.2825   66.4940 C   0  0  0  0  0  0  0  0  0  0  0  0
   28.5755   32.6897   66.5059 C   0  0  0  0  0  0  0  0  0  0  0  0
   29.6817   33.7088   66.4131 C   0  0  0  0  0  0  0  0  0  0  0  0
   30.3139   34.2468   67.4314 N   0  0  0  0  0  0  0  0  0  0  0  0
   31.2774   35.1473   66.9442 N   0  0  0  0  0  0  0  0  0  0  0  0
   32.2086   35.9396   67.7514 C   0  0  0  0  0  0  0  0  0  0  0  0
   32.4928   35.2219   69.0871 C   0  0  0  0  0  0  0  0  0  0  0  0
   32.5939   36.3705   70.1213 C   0  0  0  0  0  0  0  0  0  0  0  0
   31.4968   37.3554   69.6467 C   0  0  0  0  0  0  0  0  0  0  0  0
   31.5754   37.2961   68.1072 C   0  0  0  0  0  0  0  0  0  0  0  0
   31.1891   35.1485   65.6044 C   0  0  0  0  0  0  0  0  0  0  0  0
   30.1990   34.2312   65.2424 C   0  0  0  0  0  0  0  0  0  0  0  0
   29.8638   33.9293   63.8072 C   0  0  0  0  0  0  0  0  0  0  0  0
   30.1131   35.1471   62.9147 C   0  0  0  0  0  0  0  0  0  0  0  0
   31.3586   35.8250   63.2525 N   0  0  0  0  0  0  0  0  0  0  0  0
   32.2280   36.5264   62.4813 C   0  0  0  0  0  0  0  0  0  0  0  0
   32.1312   36.7402   61.0230 C   0  0  0  0  0  0  0  0  0  0  0  0
   32.1269   35.6905   60.1029 C   0  0  0  0  0  0  0  0  0  0  0  0
   32.0339   36.0618   58.8298 C   0  0  0  0  0  0  0  0  0  0  0  0
   31.9436   37.8139   58.7188 S   0  0  0  0  0  0  0  0  0  0  0  0
   32.0397   37.9664   60.4680 C   0  0  0  0  0  0  0  0  0  0  0  0
   33.1742   36.9869   63.2807 N   0  0  0  0  0  0  0  0  0  0  0  0
   32.9568   36.6024   64.4943 N   0  0  0  0  0  0  0  0  0  0  0  0
   31.8893   35.8710   64.5361 C   0  0  0  0  0  0  0  0  0  0  0  0
   29.8483   31.1672   67.3442 H   0  0  0  0  0  0  0  0  0  0  0  0
   28.3758   30.5454   66.5612 H   0  0  0  0  0  0  0  0  0  0  0  0
   29.7316   31.1324   65.5684 H   0  0  0  0  0  0  0  0  0  0  0  0
   28.0197   32.8399   67.4315 H   0  0  0  0  0  0  0  0  0  0  0  0
   27.9032   32.8049   65.6557 H   0  0  0  0  0  0  0  0  0  0  0  0
   33.1387   36.0937   67.2043 H   0  0  0  0  0  0  0  0  0  0  0  0
   31.6726   34.5506   69.3415 H   0  0  0  0  0  0  0  0  0  0  0  0
   33.4331   34.6735   69.0329 H   0  0  0  0  0  0  0  0  0  0  0  0
   33.5771   36.8396   70.0827 H   0  0  0  0  0  0  0  0  0  0  0  0
   32.3778   36.0061   71.1256 H   0  0  0  0  0  0  0  0  0  0  0  0
   31.7103   38.3639   70.0010 H   0  0  0  0  0  0  0  0  0  0  0  0
   30.5150   37.0309   69.9913 H   0  0  0  0  0  0  0  0  0  0  0  0
   32.1986   38.1086   67.7335 H   0  0  0  0  0  0  0  0  0  0  0  0
   30.5755   37.3653   67.6786 H   0  0  0  0  0  0  0  0  0  0  0  0
   30.4823   33.1006   63.4624 H   0  0  0  0  0  0  0  0  0  0  0  0
   28.8142   33.6439   63.7377 H   0  0  0  0  0  0  0  0  0  0  0  0
   30.1542   34.8226   61.8748 H   0  0  0  0  0  0  0  0  0  0  0  0
   29.2887   35.8499   63.0346 H   0  0  0  0  0  0  0  0  0  0  0  0
   32.1937   34.6551   60.4025 H   0  0  0  0  0  0  0  0  0  0  0  0
   32.0161   35.3862   57.9875 H   0  0  0  0  0  0  0  0  0  0  0  0
   32.0274   38.8982   61.0139 H   0  0  0  0  0  0  0  0  0  0  0  0
  1  2  1  0  0  0  0
  1 25  1  0  0  0  0
  1 26  1  0  0  0  0
  1 27  1  0  0  0  0
  2  3  1  0  0  0  0
  2 28  1  0  0  0  0
  2 29  1  0  0  0  0
  3 12  1  0  0  0  0
  3  4  2  0  0  0  0
  4  5  1  0  0  0  0
  5  6  1  0  0  0  0
  5 11  1  0  0  0  0
  6 10  1  0  0  0  0
  6  7  1  0  0  0  0
  6 30  1  0  0  0  0
  7  8  1  0  0  0  0
  7 31  1  0  0  0  0
  7 32  1  0  0  0  0
  8  9  1  0  0  0  0
  8 33  1  0  0  0  0
  8 34  1  0  0  0  0
  9 10  1  0  0  0  0
  9 35  1  0  0  0  0
  9 36  1  0  0  0  0
 10 37  1  0  0  0  0
 10 38  1  0  0  0  0
 11 24  1  0  0  0  0
 11 12  2  0  0  0  0
 12 13  1  0  0  0  0
 13 14  1  0  0  0  0
 13 39  1  0  0  0  0
 13 40  1  0  0  0  0
 14 15  1  0  0  0  0
 14 41  1  0  0  0  0
 14 42  1  0  0  0  0
 15 24  1  0  0  0  0
 15 16  1  0  0  0  0
 16 17  1  0  0  0  0
 16 22  2  0  0  0  0
 17 21  2  0  0  0  0
 17 18  1  0  0  0  0
 18 19  2  0  0  0  0
 18 43  1  0  0  0  0
 19 20  1  0  0  0  0
 19 44  1  0  0  0  0
 20 21  1  0  0  0  0
 21 45  1  0  0  0  0
 22 23  1  0  0  0  0
 23 24  2  0  0  0  0
M  END
$$$$
