ZINC000000004119      none
 OpenBabel11202420153D

 27 28  0  0  0  0  0  0  0  0999 V2000
   30.7094   34.9068   64.0439 C   0  0  0  0  0  0  0  0  0  0  0  0
   31.8399   35.7378   64.6539 C   0  0  0  0  0  0  0  0  0  0  0  0
   32.3511   36.7414   63.6184 C   0  0  0  0  0  0  0  0  0  0  0  0
   31.2251   37.6530   63.2036 C   0  0  0  0  0  0  0  0  0  0  0  0
   30.3173   38.2671   64.0463 N   0  0  0  0  0  0  0  0  0  0  0  0
   30.2896   38.1903   65.0129 H   0  0  0  0  0  0  0  0  0  0  0  0
   29.4782   38.9924   63.2804 C   0  0  0  0  0  0  0  0  0  0  0  0
   28.5494   39.6675   63.6824 O   0  0  0  0  0  0  0  0  0  0  0  0
   29.8434   38.8416   61.9977 O   0  0  0  0  0  0  0  0  0  0  0  0
   30.9194   38.0169   61.9480 C   0  0  0  0  0  0  0  0  0  0  0  0
   31.6309   37.5931   60.7247 C   0  0  0  0  0  0  0  0  0  0  0  0
   32.2275   38.5343   59.8762 C   0  0  0  0  0  0  0  0  0  0  0  0
   32.8862   38.0940   58.7482 C   0  0  0  0  0  0  0  0  0  0  0  0
   32.9493   36.8077   58.4586 N   0  0  0  0  0  0  0  0  0  0  0  0
   32.3965   35.8884   59.2277 C   0  0  0  0  0  0  0  0  0  0  0  0
   31.7230   36.2391   60.3781 C   0  0  0  0  0  0  0  0  0  0  0  0
   29.8949   35.5660   63.7439 H   0  0  0  0  0  0  0  0  0  0  0  0
   31.0827   34.3704   63.1715 H   0  0  0  0  0  0  0  0  0  0  0  0
   30.3452   34.1918   64.7817 H   0  0  0  0  0  0  0  0  0  0  0  0
   32.6544   35.0786   64.9539 H   0  0  0  0  0  0  0  0  0  0  0  0
   31.4666   36.2743   65.5263 H   0  0  0  0  0  0  0  0  0  0  0  0
   32.7246   36.2051   62.7460 H   0  0  0  0  0  0  0  0  0  0  0  0
   33.1567   37.3335   64.0530 H   0  0  0  0  0  0  0  0  0  0  0  0
   32.1759   39.5886   60.1045 H   0  0  0  0  0  0  0  0  0  0  0  0
   33.3535   38.8116   58.0901 H   0  0  0  0  0  0  0  0  0  0  0  0
   32.4732   34.8469   58.9520 H   0  0  0  0  0  0  0  0  0  0  0  0
   31.2728   35.4816   61.0025 H   0  0  0  0  0  0  0  0  0  0  0  0
  1  2  1  0  0  0  0
  1 17  1  0  0  0  0
  1 18  1  0  0  0  0
  1 19  1  0  0  0  0
  2  3  1  0  0  0  0
  2 20  1  0  0  0  0
  2 21  1  0  0  0  0
  3  4  1  0  0  0  0
  3 22  1  0  0  0  0
  3 23  1  0  0  0  0
  4 10  2  0  0  0  0
  4  5  1  0  0  0  0
  5  6  1  0  0  0  0
  5  7  1  0  0  0  0
  7  8  2  0  0  0  0
  7  9  1  0  0  0  0
  9 10  1  0  0  0  0
 10 11  1  0  0  0  0
 11 16  2  0  0  0  0
 11 12  1  0  0  0  0
 12 13  2  0  0  0  0
 12 24  1  0  0  0  0
 13 14  1  0  0  0  0
 13 25  1  0  0  0  0
 14 15  2  0  0  0  0
 15 16  1  0  0  0  0
 15 26  1  0  0  0  0
 16 27  1  0  0  0  0
M  END
$$$$
