ZINC000000057174      none
 OpenBabel11202420153D

 30 31  0  0  1  0  0  0  0  0999 V2000
   32.6285   34.5998   57.0762 N   0  0  0  0  0  0  0  0  0  0  0  0
   32.6762   35.8780   57.6618 C   0  0  0  0  0  0  0  0  0  0  0  0
   32.3257   36.0533   58.9569 C   0  0  0  0  0  0  0  0  0  0  0  0
   32.3796   37.3097   59.5098 N   0  0  0  0  0  0  0  0  0  0  0  0
   32.0006   37.5025   60.9118 C   0  0  1  0  0  0  0  0  0  0  0  0
   32.0999   38.5519   61.1891 H   0  0  0  0  0  0  0  0  0  0  0  0
   30.5481   37.0185   61.1499 C   0  0  0  0  0  0  0  0  0  0  0  0
   30.5884   36.7015   62.6697 C   0  0  2  0  0  0  0  0  0  0  0  0
   29.8649   35.9268   62.9239 H   0  0  0  0  0  0  0  0  0  0  0  0
   30.3631   37.8828   63.4418 O   0  0  0  0  0  0  0  0  0  0  0  0
   32.0320   36.1883   62.8592 C   0  0  2  0  0  0  0  0  0  0  0  0
   32.0403   35.0983   62.8572 H   0  0  0  0  0  0  0  0  0  0  0  0
   32.6008   36.7089   64.1807 C   0  0  0  0  0  0  0  0  0  0  0  0
   31.7904   36.2467   65.2632 O   0  0  0  0  0  0  0  0  0  0  0  0
   32.8140   36.6822   61.7655 O   0  0  0  0  0  0  0  0  0  0  0  0
   32.7718   38.3656   58.7743 C   0  0  0  0  0  0  0  0  0  0  0  0
   32.8072   39.4696   59.2833 O   0  0  0  0  0  0  0  0  0  0  0  0
   33.1311   38.2185   57.4858 N   0  0  0  0  0  0  0  0  0  0  0  0
   33.4146   38.9915   56.9729 H   0  0  0  0  0  0  0  0  0  0  0  0
   33.0934   37.0038   56.9022 C   0  0  0  0  0  0  0  0  0  0  0  0
   33.4137   36.8728   55.7345 O   0  0  0  0  0  0  0  0  0  0  0  0
   32.3429   33.8360   57.6015 H   0  0  0  0  0  0  0  0  0  0  0  0
   32.8814   34.4821   56.1471 H   0  0  0  0  0  0  0  0  0  0  0  0
   32.0059   35.2108   59.5522 H   0  0  0  0  0  0  0  0  0  0  0  0
   29.8299   37.8090   60.9324 H   0  0  0  0  0  0  0  0  0  0  0  0
   30.3320   36.1229   60.5675 H   0  0  0  0  0  0  0  0  0  0  0  0
   30.4865   37.7604   64.3930 H   0  0  0  0  0  0  0  0  0  0  0  0
   33.6196   36.3428   64.3073 H   0  0  0  0  0  0  0  0  0  0  0  0
   32.6052   37.7989   64.1699 H   0  0  0  0  0  0  0  0  0  0  0  0
   32.0928   36.5394   66.1338 H   0  0  0  0  0  0  0  0  0  0  0  0
  1  2  1  0  0  0  0
  1 22  1  0  0  0  0
  1 23  1  0  0  0  0
  2 20  1  0  0  0  0
  2  3  2  0  0  0  0
  3  4  1  0  0  0  0
  3 24  1  0  0  0  0
  4  5  1  0  0  0  0
  4 16  1  0  0  0  0
  5  6  1  1  0  0  0
  5 15  1  0  0  0  0
  5  7  1  0  0  0  0
  7  8  1  0  0  0  0
  7 25  1  0  0  0  0
  7 26  1  0  0  0  0
  8  9  1  1  0  0  0
  8 10  1  0  0  0  0
  8 11  1  0  0  0  0
 10 27  1  0  0  0  0
 11 12  1  6  0  0  0
 11 13  1  0  0  0  0
 11 15  1  0  0  0  0
 13 14  1  0  0  0  0
 13 28  1  0  0  0  0
 13 29  1  0  0  0  0
 14 30  1  0  0  0  0
 16 17  2  0  0  0  0
 16 18  1  0  0  0  0
 18 19  1  0  0  0  0
 18 20  1  0  0  0  0
 20 21  2  0  0  0  0
M  END
$$$$
