ZINC000000052023      none
 OpenBabel11202420153D

 45 47  0  0  0  0  0  0  0  0999 V2000
   30.9034   32.6975   58.5403 C   0  0  0  0  0  0  0  0  0  0  0  0
   32.1227   33.3147   58.9577 O   0  0  0  0  0  0  0  0  0  0  0  0
   32.0715   34.0895   60.0721 C   0  0  0  0  0  0  0  0  0  0  0  0
   32.2985   33.5243   61.3196 C   0  0  0  0  0  0  0  0  0  0  0  0
   32.2529   34.3069   62.4528 C   0  0  0  0  0  0  0  0  0  0  0  0
   31.9658   35.6707   62.3490 C   0  0  0  0  0  0  0  0  0  0  0  0
   31.9101   36.5083   63.5609 C   0  0  0  0  0  0  0  0  0  0  0  0
   33.2904   36.6574   64.5625 S   0  0  0  0  0  0  0  0  0  0  0  0
   30.7727   37.1569   63.8801 N   0  0  0  0  0  0  0  0  0  0  0  0
   30.6912   37.9939   65.0876 C   0  0  0  0  0  0  0  0  0  0  0  0
   30.1194   39.3599   64.6913 C   0  0  0  0  0  0  0  0  0  0  0  0
   28.9010   39.1683   63.9685 O   0  0  0  0  0  0  0  0  0  0  0  0
   29.0560   38.4563   62.7385 C   0  0  0  0  0  0  0  0  0  0  0  0
   29.5734   37.0440   63.0347 C   0  0  0  0  0  0  0  0  0  0  0  0
   31.7372   36.2397   61.0929 C   0  0  0  0  0  0  0  0  0  0  0  0
   31.7907   35.4503   59.9605 C   0  0  0  0  0  0  0  0  0  0  0  0
   31.5687   36.0007   58.7368 O   0  0  0  0  0  0  0  0  0  0  0  0
   32.6281   35.9087   57.7823 C   0  0  0  0  0  0  0  0  0  0  0  0
   33.0555   37.2940   57.3709 C   0  0  0  0  0  0  0  0  0  0  0  0
   33.5669   37.5123   56.1053 C   0  0  0  0  0  0  0  0  0  0  0  0
   33.9544   38.7840   55.7263 C   0  0  0  0  0  0  0  0  0  0  0  0
   33.8403   39.8354   56.6165 C   0  0  0  0  0  0  0  0  0  0  0  0
   33.3337   39.6161   57.8840 C   0  0  0  0  0  0  0  0  0  0  0  0
   32.9413   38.3454   58.2611 C   0  0  0  0  0  0  0  0  0  0  0  0
   30.1607   33.4664   58.3284 H   0  0  0  0  0  0  0  0  0  0  0  0
   31.0835   32.1086   57.6408 H   0  0  0  0  0  0  0  0  0  0  0  0
   30.5359   32.0460   59.3332 H   0  0  0  0  0  0  0  0  0  0  0  0
   32.5158   32.4695   61.4015 H   0  0  0  0  0  0  0  0  0  0  0  0
   32.4344   33.8655   63.4217 H   0  0  0  0  0  0  0  0  0  0  0  0
   30.0369   37.5201   65.8193 H   0  0  0  0  0  0  0  0  0  0  0  0
   31.6866   38.1220   65.5132 H   0  0  0  0  0  0  0  0  0  0  0  0
   30.8371   39.8864   64.0623 H   0  0  0  0  0  0  0  0  0  0  0  0
   29.9221   39.9468   65.5885 H   0  0  0  0  0  0  0  0  0  0  0  0
   29.7699   38.9796   62.1024 H   0  0  0  0  0  0  0  0  0  0  0  0
   28.0940   38.3925   62.2302 H   0  0  0  0  0  0  0  0  0  0  0  0
   29.8285   36.5431   62.1008 H   0  0  0  0  0  0  0  0  0  0  0  0
   28.8065   36.4746   63.5596 H   0  0  0  0  0  0  0  0  0  0  0  0
   31.5197   37.2942   61.0078 H   0  0  0  0  0  0  0  0  0  0  0  0
   33.4739   35.3846   58.2275 H   0  0  0  0  0  0  0  0  0  0  0  0
   32.2813   35.3603   56.9064 H   0  0  0  0  0  0  0  0  0  0  0  0
   33.6603   36.6901   55.4114 H   0  0  0  0  0  0  0  0  0  0  0  0
   34.3505   38.9552   54.7363 H   0  0  0  0  0  0  0  0  0  0  0  0
   34.1471   40.8281   56.3220 H   0  0  0  0  0  0  0  0  0  0  0  0
   33.2448   40.4375   58.5795 H   0  0  0  0  0  0  0  0  0  0  0  0
   32.5459   38.1740   59.2514 H   0  0  0  0  0  0  0  0  0  0  0  0
  1  2  1  0  0  0  0
  1 25  1  0  0  0  0
  1 26  1  0  0  0  0
  1 27  1  0  0  0  0
  2  3  1  0  0  0  0
  3 16  2  0  0  0  0
  3  4  1  0  0  0  0
  4  5  2  0  0  0  0
  4 28  1  0  0  0  0
  5  6  1  0  0  0  0
  5 29  1  0  0  0  0
  6  7  1  0  0  0  0
  6 15  2  0  0  0  0
  7  8  2  0  0  0  0
  7  9  1  0  0  0  0
  9 14  1  0  0  0  0
  9 10  1  0  0  0  0
 10 11  1  0  0  0  0
 10 30  1  0  0  0  0
 10 31  1  0  0  0  0
 11 12  1  0  0  0  0
 11 32  1  0  0  0  0
 11 33  1  0  0  0  0
 12 13  1  0  0  0  0
 13 14  1  0  0  0  0
 13 34  1  0  0  0  0
 13 35  1  0  0  0  0
 14 36  1  0  0  0  0
 14 37  1  0  0  0  0
 15 16  1  0  0  0  0
 15 38  1  0  0  0  0
 16 17  1  0  0  0  0
 17 18  1  0  0  0  0
 18 19  1  0  0  0  0
 18 39  1  0  0  0  0
 18 40  1  0  0  0  0
 19 24  2  0  0  0  0
 19 20  1  0  0  0  0
 20 21  2  0  0  0  0
 20 41  1  0  0  0  0
 21 22  1  0  0  0  0
 21 42  1  0  0  0  0
 22 23  2  0  0  0  0
 22 43  1  0  0  0  0
 23 24  1  0  0  0  0
 23 44  1  0  0  0  0
 24 45  1  0  0  0  0
M  END
$$$$
