ZINC000000002686      none
 OpenBabel11202420153D

 28 28  0  0  1  0  0  0  0  0999 V2000
   30.8663   37.1924   60.4541 C   0  0  0  0  0  0  0  0  0  0  0  0
   30.3776   37.3736   61.8927 C   0  0  0  0  0  0  0  0  0  0  0  0
   31.1470   36.4266   62.8158 C   0  0  1  0  0  0  0  0  0  0  0  0
   30.9259   34.9797   62.3702 C   0  0  0  0  0  0  0  0  0  0  0  0
   32.5492   36.7390   62.7715 O   0  0  0  0  0  0  0  0  0  0  0  0
   33.0451   36.4990   64.1086 C   0  0  0  0  0  0  0  0  0  0  0  0
   31.8733   36.9946   64.9926 C   0  0  0  0  0  0  0  0  0  0  0  0
   31.9282   38.5140   65.1641 C   0  0  0  0  0  0  0  0  0  0  0  0
   31.8850   36.2930   66.3522 C   0  0  0  0  0  0  0  0  0  0  0  0
   30.6797   36.5969   64.2056 N   0  0  0  0  0  0  0  0  0  0  0  0
   29.6347   37.6176   64.2862 O   0  0  0  0  0  0  0  0  0  0  0  0
   31.9312   37.4188   60.4010 H   0  0  0  0  0  0  0  0  0  0  0  0
   30.6976   36.1623   60.1402 H   0  0  0  0  0  0  0  0  0  0  0  0
   30.3182   37.8670   59.7965 H   0  0  0  0  0  0  0  0  0  0  0  0
   29.3127   37.1473   61.9458 H   0  0  0  0  0  0  0  0  0  0  0  0
   30.5462   38.4037   62.2066 H   0  0  0  0  0  0  0  0  0  0  0  0
   29.8638   34.7407   62.4259 H   0  0  0  0  0  0  0  0  0  0  0  0
   31.2722   34.8587   61.3438 H   0  0  0  0  0  0  0  0  0  0  0  0
   31.4841   34.3091   63.0235 H   0  0  0  0  0  0  0  0  0  0  0  0
   33.9466   37.0818   64.2979 H   0  0  0  0  0  0  0  0  0  0  0  0
   33.2288   35.4365   64.2689 H   0  0  0  0  0  0  0  0  0  0  0  0
   31.0337   38.8532   65.6864 H   0  0  0  0  0  0  0  0  0  0  0  0
   32.8113   38.7825   65.7440 H   0  0  0  0  0  0  0  0  0  0  0  0
   31.9790   38.9887   64.1842 H   0  0  0  0  0  0  0  0  0  0  0  0
   31.9054   35.2134   66.2038 H   0  0  0  0  0  0  0  0  0  0  0  0
   32.7688   36.5996   66.9116 H   0  0  0  0  0  0  0  0  0  0  0  0
   30.9892   36.5662   66.9098 H   0  0  0  0  0  0  0  0  0  0  0  0
   28.8349   37.4019   63.7874 H   0  0  0  0  0  0  0  0  0  0  0  0
  1  2  1  0  0  0  0
  1 12  1  0  0  0  0
  1 13  1  0  0  0  0
  1 14  1  0  0  0  0
  2 15  1  0  0  0  0
  2 16  1  0  0  0  0
  3  2  1  6  0  0  0
  3 10  1  0  0  0  0
  3  4  1  0  0  0  0
  3  5  1  0  0  0  0
  4 17  1  0  0  0  0
  4 18  1  0  0  0  0
  4 19  1  0  0  0  0
  5  6  1  0  0  0  0
  6  7  1  0  0  0  0
  6 20  1  0  0  0  0
  6 21  1  0  0  0  0
  7  8  1  0  0  0  0
  7  9  1  0  0  0  0
  7 10  1  0  0  0  0
  8 22  1  0  0  0  0
  8 23  1  0  0  0  0
  8 24  1  0  0  0  0
  9 25  1  0  0  0  0
  9 26  1  0  0  0  0
  9 27  1  0  0  0  0
 10 11  1  0  0  0  0
 11 28  1  0  0  0  0
M  END
$$$$
