ZINC000000030155      none
 OpenBabel11202420163D

 41 43  0  0  0  0  0  0  0  0999 V2000
   30.0277   36.8974   61.8208 O   0  0  0  0  0  0  0  0  0  0  0  0
   30.6843   35.8917   61.9895 C   0  0  0  0  0  0  0  0  0  0  0  0
   30.3589   34.9617   63.1299 C   0  0  0  0  0  0  0  0  0  0  0  0
   29.7632   35.7642   64.2883 C   0  0  0  0  0  0  0  0  0  0  0  0
   29.4377   34.8343   65.4287 C   0  0  0  0  0  0  0  0  0  0  0  0
   28.1894   34.2458   65.5058 C   0  0  0  0  0  0  0  0  0  0  0  0
   27.8926   33.3890   66.5493 C   0  0  0  0  0  0  0  0  0  0  0  0
   28.8405   33.1290   67.5212 C   0  0  0  0  0  0  0  0  0  0  0  0
   30.0871   33.7217   67.4468 C   0  0  0  0  0  0  0  0  0  0  0  0
   30.3858   34.5744   66.4005 C   0  0  0  0  0  0  0  0  0  0  0  0
   30.7602   36.7957   64.7499 C   0  0  0  0  0  0  0  0  0  0  0  0
   30.3198   37.9909   65.2870 C   0  0  0  0  0  0  0  0  0  0  0  0
   31.2345   38.9351   65.7149 C   0  0  0  0  0  0  0  0  0  0  0  0
   32.5894   38.6883   65.5959 C   0  0  0  0  0  0  0  0  0  0  0  0
   33.0297   37.4953   65.0538 C   0  0  0  0  0  0  0  0  0  0  0  0
   32.1151   36.5490   64.6309 C   0  0  0  0  0  0  0  0  0  0  0  0
   31.7050   35.6058   61.1571 N   0  0  0  0  0  0  0  0  0  0  0  0
   32.0072   36.4694   60.0981 C   0  0  0  0  0  0  0  0  0  0  0  0
   32.5633   35.9758   58.9205 C   0  0  0  0  0  0  0  0  0  0  0  0
   32.8445   36.8696   57.9004 C   0  0  0  0  0  0  0  0  0  0  0  0
   32.5712   38.2125   58.0848 C   0  0  0  0  0  0  0  0  0  0  0  0
   32.0394   38.6473   59.2104 N   0  0  0  0  0  0  0  0  0  0  0  0
   31.7565   37.8308   60.2058 C   0  0  0  0  0  0  0  0  0  0  0  0
   29.6378   34.2157   62.7959 H   0  0  0  0  0  0  0  0  0  0  0  0
   31.2692   34.4634   63.4634 H   0  0  0  0  0  0  0  0  0  0  0  0
   28.8529   36.2626   63.9547 H   0  0  0  0  0  0  0  0  0  0  0  0
   27.4471   34.4524   64.7489 H   0  0  0  0  0  0  0  0  0  0  0  0
   26.9185   32.9262   66.6077 H   0  0  0  0  0  0  0  0  0  0  0  0
   28.6072   32.4631   68.3388 H   0  0  0  0  0  0  0  0  0  0  0  0
   30.8277   33.5189   68.2063 H   0  0  0  0  0  0  0  0  0  0  0  0
   31.3596   35.0378   66.3426 H   0  0  0  0  0  0  0  0  0  0  0  0
   29.2612   38.1855   65.3760 H   0  0  0  0  0  0  0  0  0  0  0  0
   30.8904   39.8671   66.1380 H   0  0  0  0  0  0  0  0  0  0  0  0
   33.3038   39.4277   65.9260 H   0  0  0  0  0  0  0  0  0  0  0  0
   34.0883   37.3027   64.9606 H   0  0  0  0  0  0  0  0  0  0  0  0
   32.4592   35.6171   64.2071 H   0  0  0  0  0  0  0  0  0  0  0  0
   32.2302   34.8015   61.2920 H   0  0  0  0  0  0  0  0  0  0  0  0
   32.7706   34.9221   58.8056 H   0  0  0  0  0  0  0  0  0  0  0  0
   33.2765   36.5224   56.9735 H   0  0  0  0  0  0  0  0  0  0  0  0
   32.7925   38.9143   57.2944 H   0  0  0  0  0  0  0  0  0  0  0  0
   31.3258   38.2248   61.1145 H   0  0  0  0  0  0  0  0  0  0  0  0
  1  2  2  0  0  0  0
  2  3  1  0  0  0  0
  2 17  1  0  0  0  0
  3  4  1  0  0  0  0
  3 24  1  0  0  0  0
  3 25  1  0  0  0  0
  4  5  1  0  0  0  0
  4 11  1  0  0  0  0
  4 26  1  0  0  0  0
  5 10  2  0  0  0  0
  5  6  1  0  0  0  0
  6  7  2  0  0  0  0
  6 27  1  0  0  0  0
  7  8  1  0  0  0  0
  7 28  1  0  0  0  0
  8  9  2  0  0  0  0
  8 29  1  0  0  0  0
  9 10  1  0  0  0  0
  9 30  1  0  0  0  0
 10 31  1  0  0  0  0
 11 16  2  0  0  0  0
 11 12  1  0  0  0  0
 12 13  2  0  0  0  0
 12 32  1  0  0  0  0
 13 14  1  0  0  0  0
 13 33  1  0  0  0  0
 14 15  2  0  0  0  0
 14 34  1  0  0  0  0
 15 16  1  0  0  0  0
 15 35  1  0  0  0  0
 16 36  1  0  0  0  0
 17 18  1  0  0  0  0
 17 37  1  0  0  0  0
 18 23  2  0  0  0  0
 18 19  1  0  0  0  0
 19 20  2  0  0  0  0
 19 38  1  0  0  0  0
 20 21  1  0  0  0  0
 20 39  1  0  0  0  0
 21 22  2  0  0  0  0
 21 40  1  0  0  0  0
 22 23  1  0  0  0  0
 23 41  1  0  0  0  0
M  END
$$$$
