ZINC000000001869      none
 OpenBabel11202420153D

 27 27  0  0  1  0  0  0  0  0999 V2000
   32.2511   39.7631   68.1620 N   0  3  0  0  0  0  0  0  0  0  0  0
   33.0890   39.4792   67.6768 H   0  0  0  0  0  0  0  0  0  0  0  0
   32.4517   40.5670   68.7377 H   0  0  0  0  0  0  0  0  0  0  0  0
   31.9263   39.0054   68.7436 H   0  0  0  0  0  0  0  0  0  0  0  0
   31.2118   40.1089   67.1830 C   0  0  2  0  0  0  0  0  0  0  0  0
   31.5627   40.9275   66.5545 H   0  0  0  0  0  0  0  0  0  0  0  0
   29.9604   40.5328   67.9076 C   0  0  0  0  0  0  0  0  0  0  0  0
   29.5046   41.6504   67.7346 O   0  0  0  0  0  0  0  0  0  0  0  0
   29.4007   39.7565   68.6631 O   0  0  0  0  0  1  0  0  0  0  0  0
   30.9076   38.8899   66.3100 C   0  0  2  0  0  0  0  0  0  0  0  0
   32.1782   38.4596   65.5743 C   0  0  0  0  0  0  0  0  0  0  0  0
   31.8739   37.2405   64.7011 C   0  0  0  0  0  0  0  0  0  0  0  0
   30.7915   37.6008   63.6817 C   0  0  2  0  0  0  0  0  0  0  0  0
   31.2514   38.6738   62.8577 O   0  0  0  0  0  0  0  0  0  0  0  0
   29.5209   38.0311   64.4174 C   0  0  0  0  0  0  0  0  0  0  0  0
   29.8251   39.2501   65.2904 C   0  0  0  0  0  0  0  0  0  0  0  0
   30.5567   38.0714   66.9384 H   0  0  0  0  0  0  0  0  0  0  0  0
   32.5290   39.2782   64.9457 H   0  0  0  0  0  0  0  0  0  0  0  0
   32.9493   38.2030   66.3006 H   0  0  0  0  0  0  0  0  0  0  0  0
   31.5231   36.4220   65.3297 H   0  0  0  0  0  0  0  0  0  0  0  0
   32.7792   36.9340   64.1770 H   0  0  0  0  0  0  0  0  0  0  0  0
   30.5747   36.7323   63.0596 H   0  0  0  0  0  0  0  0  0  0  0  0
   31.4639   39.4812   63.3455 H   0  0  0  0  0  0  0  0  0  0  0  0
   29.1701   37.2125   65.0458 H   0  0  0  0  0  0  0  0  0  0  0  0
   28.7497   38.2877   63.6910 H   0  0  0  0  0  0  0  0  0  0  0  0
   28.9199   39.5567   65.8145 H   0  0  0  0  0  0  0  0  0  0  0  0
   30.1759   40.0687   64.6619 H   0  0  0  0  0  0  0  0  0  0  0  0
  1  2  1  0  0  0  0
  1  3  1  0  0  0  0
  1  4  1  0  0  0  0
  1  5  1  0  0  0  0
  5  6  1  6  0  0  0
  5  7  1  0  0  0  0
  5 10  1  0  0  0  0
  7  8  2  0  0  0  0
  7  9  1  0  0  0  0
 10 16  1  0  0  0  0
 10 11  1  0  0  0  0
 10 17  1  1  0  0  0
 11 12  1  0  0  0  0
 11 18  1  0  0  0  0
 11 19  1  0  0  0  0
 12 13  1  0  0  0  0
 12 20  1  0  0  0  0
 12 21  1  0  0  0  0
 13 14  1  0  0  0  0
 13 15  1  0  0  0  0
 13 22  1  6  0  0  0
 14 23  1  0  0  0  0
 15 16  1  0  0  0  0
 15 24  1  0  0  0  0
 15 25  1  0  0  0  0
 16 26  1  0  0  0  0
 16 27  1  0  0  0  0
M  CHG  1   1   1
M  END
$$$$
