ZINC000000051356      none
 OpenBabel11202420153D

 31 33  0  0  0  0  0  0  0  0999 V2000
   30.9357   39.4047   64.3310 C   0  0  0  0  0  0  0  0  0  0  0  0
   31.9991   38.4031   64.7012 C   0  0  0  0  0  0  0  0  0  0  0  0
   32.8500   38.5251   65.6745 N   0  0  0  0  0  0  0  0  0  0  0  0
   33.6723   37.3715   65.6821 O   0  0  0  0  0  0  0  0  0  0  0  0
   33.2383   36.5331   64.6253 N   0  0  0  0  0  0  0  0  0  0  0  0
   32.2461   37.1324   64.0253 C   0  0  0  0  0  0  0  0  0  0  0  0
   31.5382   36.6402   62.9288 N   0  0  0  0  0  0  0  0  0  0  0  0
   31.8631   35.4445   62.3988 C   0  0  0  0  0  0  0  0  0  0  0  0
   32.7707   34.7963   62.8751 O   0  0  0  0  0  0  0  0  0  0  0  0
   31.0983   34.9125   61.2142 C   0  0  0  0  0  0  0  0  0  0  0  0
   31.7413   35.3605   59.9765 N   0  0  0  0  0  0  0  0  0  0  0  0
   31.9113   36.6493   59.6303 C   0  0  0  0  0  0  0  0  0  0  0  0
   31.5620   37.6111   60.2845 O   0  0  0  0  0  0  0  0  0  0  0  0
   32.5949   36.6990   58.3206 C   0  0  0  0  0  0  0  0  0  0  0  0
   33.0211   37.7227   57.4897 C   0  0  0  0  0  0  0  0  0  0  0  0
   33.6450   37.4191   56.2898 C   0  0  0  0  0  0  0  0  0  0  0  0
   33.8536   36.1032   55.9219 C   0  0  0  0  0  0  0  0  0  0  0  0
   33.4330   35.0687   56.7431 C   0  0  0  0  0  0  0  0  0  0  0  0
   32.8033   35.3571   57.9433 C   0  0  0  0  0  0  0  0  0  0  0  0
   32.2393   34.5373   59.0363 C   0  0  0  0  0  0  0  0  0  0  0  0
   32.2270   33.3236   59.0782 O   0  0  0  0  0  0  0  0  0  0  0  0
   30.0193   39.1802   64.8768 H   0  0  0  0  0  0  0  0  0  0  0  0
   31.2757   40.4076   64.5891 H   0  0  0  0  0  0  0  0  0  0  0  0
   30.7431   39.3508   63.2596 H   0  0  0  0  0  0  0  0  0  0  0  0
   30.8123   37.1586   62.5479 H   0  0  0  0  0  0  0  0  0  0  0  0
   30.0740   35.2840   61.2465 H   0  0  0  0  0  0  0  0  0  0  0  0
   31.0907   33.8230   61.2460 H   0  0  0  0  0  0  0  0  0  0  0  0
   32.8636   38.7528   57.7738 H   0  0  0  0  0  0  0  0  0  0  0  0
   33.9734   38.2164   55.6395 H   0  0  0  0  0  0  0  0  0  0  0  0
   34.3444   35.8794   54.9863 H   0  0  0  0  0  0  0  0  0  0  0  0
   33.5950   34.0424   56.4486 H   0  0  0  0  0  0  0  0  0  0  0  0
  1  2  1  0  0  0  0
  1 22  1  0  0  0  0
  1 23  1  0  0  0  0
  1 24  1  0  0  0  0
  2  6  1  0  0  0  0
  2  3  2  0  0  0  0
  3  4  1  0  0  0  0
  4  5  1  0  0  0  0
  5  6  2  0  0  0  0
  6  7  1  0  0  0  0
  7  8  1  0  0  0  0
  7 25  1  0  0  0  0
  8  9  2  0  0  0  0
  8 10  1  0  0  0  0
 10 11  1  0  0  0  0
 10 26  1  0  0  0  0
 10 27  1  0  0  0  0
 11 20  1  0  0  0  0
 11 12  1  0  0  0  0
 12 13  2  0  0  0  0
 12 14  1  0  0  0  0
 14 19  2  0  0  0  0
 14 15  1  0  0  0  0
 15 16  2  0  0  0  0
 15 28  1  0  0  0  0
 16 17  1  0  0  0  0
 16 29  1  0  0  0  0
 17 18  2  0  0  0  0
 17 30  1  0  0  0  0
 18 19  1  0  0  0  0
 18 31  1  0  0  0  0
 19 20  1  0  0  0  0
 20 21  2  0  0  0  0
M  END
$$$$
