ZINC000000000831      none
 OpenBabel11202420153D

 36 37  0  0  1  0  0  0  0  0999 V2000
   34.7716   31.8883   55.6072 C   0  0  0  0  0  0  0  0  0  0  0  0
   33.5588   32.8104   55.4658 C   0  0  0  0  0  0  0  0  0  0  0  0
   33.9920   34.2608   55.6880 C   0  0  1  0  0  0  0  0  0  0  0  0
   34.4132   34.3651   56.6880 H   0  0  0  0  0  0  0  0  0  0  0  0
   35.0470   34.6430   54.6480 C   0  0  0  0  0  0  0  0  0  0  0  0
   32.7791   35.1827   55.5467 C   0  0  0  0  0  0  0  0  0  0  0  0
   33.0579   36.4609   56.2060 N   0  0  0  0  0  0  0  0  0  0  0  0
   33.6257   37.4591   55.5063 C   0  0  0  0  0  0  0  0  0  0  0  0
   33.8957   37.2751   54.3351 O   0  0  0  0  0  0  0  0  0  0  0  0
   33.9006   38.6544   56.0548 N   0  0  0  0  0  0  0  0  0  0  0  0
   34.5141   39.7016   55.2345 C   0  0  0  0  0  0  0  0  0  0  0  0
   33.6234   38.9023   57.3532 C   0  0  0  0  0  0  0  0  0  0  0  0
   33.8776   39.9851   57.8483 O   0  0  0  0  0  0  0  0  0  0  0  0
   33.0099   37.8398   58.1516 C   0  0  0  0  0  0  0  0  0  0  0  0
   32.6075   37.7374   59.4411 N   0  0  0  0  0  0  0  0  0  0  0  0
   32.1173   36.5483   59.6409 C   0  0  0  0  0  0  0  0  0  0  0  0
   31.5635   36.0449   60.9490 C   0  0  0  0  0  0  0  0  0  0  0  0
   32.1821   35.8275   58.4841 N   0  0  0  0  0  0  0  0  0  0  0  0
   31.8830   34.9129   58.3612 H   0  0  0  0  0  0  0  0  0  0  0  0
   32.7411   36.6236   57.5350 C   0  0  0  0  0  0  0  0  0  0  0  0
   35.1927   31.9927   56.6072 H   0  0  0  0  0  0  0  0  0  0  0  0
   34.4629   30.8551   55.4488 H   0  0  0  0  0  0  0  0  0  0  0  0
   35.5233   32.1606   54.8662 H   0  0  0  0  0  0  0  0  0  0  0  0
   32.8071   32.5381   56.2068 H   0  0  0  0  0  0  0  0  0  0  0  0
   33.1377   32.7060   54.4658 H   0  0  0  0  0  0  0  0  0  0  0  0
   34.6259   34.5387   53.6480 H   0  0  0  0  0  0  0  0  0  0  0  0
   35.3557   35.6764   54.8062 H   0  0  0  0  0  0  0  0  0  0  0  0
   35.9111   33.9861   54.7486 H   0  0  0  0  0  0  0  0  0  0  0  0
   32.5753   35.3557   54.4901 H   0  0  0  0  0  0  0  0  0  0  0  0
   31.9114   34.7154   56.0124 H   0  0  0  0  0  0  0  0  0  0  0  0
   34.6678   40.5945   55.8404 H   0  0  0  0  0  0  0  0  0  0  0  0
   35.4737   39.3504   54.8550 H   0  0  0  0  0  0  0  0  0  0  0  0
   33.8573   39.9391   54.3976 H   0  0  0  0  0  0  0  0  0  0  0  0
   30.4970   36.2641   61.0003 H   0  0  0  0  0  0  0  0  0  0  0  0
   31.7167   34.9679   61.0180 H   0  0  0  0  0  0  0  0  0  0  0  0
   32.0761   36.5385   61.7746 H   0  0  0  0  0  0  0  0  0  0  0  0
  1  2  1  0  0  0  0
  1 21  1  0  0  0  0
  1 22  1  0  0  0  0
  1 23  1  0  0  0  0
  2  3  1  0  0  0  0
  2 24  1  0  0  0  0
  2 25  1  0  0  0  0
  3  4  1  1  0  0  0
  3  5  1  0  0  0  0
  3  6  1  0  0  0  0
  5 26  1  0  0  0  0
  5 27  1  0  0  0  0
  5 28  1  0  0  0  0
  6  7  1  0  0  0  0
  6 29  1  0  0  0  0
  6 30  1  0  0  0  0
  7 20  1  0  0  0  0
  7  8  1  0  0  0  0
  8  9  2  0  0  0  0
  8 10  1  0  0  0  0
 10 11  1  0  0  0  0
 10 12  1  0  0  0  0
 11 31  1  0  0  0  0
 11 32  1  0  0  0  0
 11 33  1  0  0  0  0
 12 13  2  0  0  0  0
 12 14  1  0  0  0  0
 14 20  2  0  0  0  0
 14 15  1  0  0  0  0
 15 16  2  0  0  0  0
 16 17  1  0  0  0  0
 16 18  1  0  0  0  0
 17 34  1  0  0  0  0
 17 35  1  0  0  0  0
 17 36  1  0  0  0  0
 18 19  1  0  0  0  0
 18 20  1  0  0  0  0
M  END
$$$$
