ZINC000000040949      none
 OpenBabel11202420153D

 30 31  0  0  0  0  0  0  0  0999 V2000
   30.8663   32.7576   58.8215 N   0  0  0  0  0  0  0  0  0  0  0  0
   31.5847   33.2510   58.0928 C   0  0  0  0  0  0  0  0  0  0  0  0
   32.4902   33.8731   57.1742 C   0  0  0  0  0  0  0  0  0  0  0  0
   32.8934   33.1814   55.9871 C   0  0  0  0  0  0  0  0  0  0  0  0
   33.2133   32.6325   55.0453 N   0  0  0  0  0  0  0  0  0  0  0  0
   32.9781   35.1494   57.4352 C   0  0  0  0  0  0  0  0  0  0  0  0
   32.5794   35.8280   58.5927 C   0  0  0  0  0  0  0  0  0  0  0  0
   32.4624   37.2052   58.7316 C   0  0  0  0  0  0  0  0  0  0  0  0
   32.0408   37.4423   60.0381 C   0  0  0  0  0  0  0  0  0  0  0  0
   31.9141   36.2150   60.6523 C   0  0  0  0  0  0  0  0  0  0  0  0
   31.5167   36.0062   61.9544 N   0  0  0  0  0  0  0  0  0  0  0  0
   30.1327   36.4521   62.1602 C   0  0  0  0  0  0  0  0  0  0  0  0
   29.6779   36.0735   63.5715 C   0  0  0  0  0  0  0  0  0  0  0  0
   30.6045   36.7347   64.5956 C   0  0  0  0  0  0  0  0  0  0  0  0
   32.0457   36.2916   64.3291 C   0  0  0  0  0  0  0  0  0  0  0  0
   32.4319   36.6639   62.8959 C   0  0  0  0  0  0  0  0  0  0  0  0
   32.2353   35.2568   59.7696 O   0  0  0  0  0  0  0  0  0  0  0  0
   33.6610   35.6187   56.7424 H   0  0  0  0  0  0  0  0  0  0  0  0
   32.6604   37.9484   57.9736 H   0  0  0  0  0  0  0  0  0  0  0  0
   31.8489   38.4064   60.4854 H   0  0  0  0  0  0  0  0  0  0  0  0
   30.0779   37.5338   62.0389 H   0  0  0  0  0  0  0  0  0  0  0  0
   29.4837   35.9713   61.4282 H   0  0  0  0  0  0  0  0  0  0  0  0
   29.7193   34.9906   63.6890 H   0  0  0  0  0  0  0  0  0  0  0  0
   28.6560   36.4183   63.7292 H   0  0  0  0  0  0  0  0  0  0  0  0
   30.3106   36.4329   65.6009 H   0  0  0  0  0  0  0  0  0  0  0  0
   30.5340   37.8187   64.5055 H   0  0  0  0  0  0  0  0  0  0  0  0
   32.1244   35.2122   64.4585 H   0  0  0  0  0  0  0  0  0  0  0  0
   32.7159   36.7918   65.0281 H   0  0  0  0  0  0  0  0  0  0  0  0
   33.4528   36.3370   62.6982 H   0  0  0  0  0  0  0  0  0  0  0  0
   32.3661   37.7447   62.7712 H   0  0  0  0  0  0  0  0  0  0  0  0
  1  2  3  0  0  0  0
  2  3  1  0  0  0  0
  3  4  1  0  0  0  0
  3  6  2  0  0  0  0
  4  5  3  0  0  0  0
  6  7  1  0  0  0  0
  6 18  1  0  0  0  0
  7 17  1  0  0  0  0
  7  8  2  0  0  0  0
  8  9  1  0  0  0  0
  8 19  1  0  0  0  0
  9 10  2  0  0  0  0
  9 20  1  0  0  0  0
 10 11  1  0  0  0  0
 10 17  1  0  0  0  0
 11 16  1  0  0  0  0
 11 12  1  0  0  0  0
 12 13  1  0  0  0  0
 12 21  1  0  0  0  0
 12 22  1  0  0  0  0
 13 14  1  0  0  0  0
 13 23  1  0  0  0  0
 13 24  1  0  0  0  0
 14 15  1  0  0  0  0
 14 25  1  0  0  0  0
 14 26  1  0  0  0  0
 15 16  1  0  0  0  0
 15 27  1  0  0  0  0
 15 28  1  0  0  0  0
 16 29  1  0  0  0  0
 16 30  1  0  0  0  0
M  END
$$$$
