ZINC000000001674      none
 OpenBabel11202420153D

 37 39  0  0  0  0  0  0  0  0999 V2000
   29.4131   39.5403   65.4402 C   0  0  0  0  0  0  0  0  0  0  0  0
   30.5452   38.6722   65.5220 O   0  0  0  0  0  0  0  0  0  0  0  0
   31.0480   38.2014   64.3493 C   0  0  0  0  0  0  0  0  0  0  0  0
   32.1427   37.3497   64.3564 C   0  0  0  0  0  0  0  0  0  0  0  0
   32.6564   36.8756   63.1652 C   0  0  0  0  0  0  0  0  0  0  0  0
   32.0710   37.2426   61.9624 C   0  0  0  0  0  0  0  0  0  0  0  0
   32.5732   36.7712   60.7900 O   0  0  0  0  0  0  0  0  0  0  0  0
   31.6516   36.6010   59.7112 C   0  0  0  0  0  0  0  0  0  0  0  0
   32.3834   36.0746   58.5036 C   0  0  0  0  0  0  0  0  0  0  0  0
   32.4988   34.8018   58.3196 N   0  0  0  0  0  0  0  0  0  0  0  0
   33.2111   34.2428   57.1757 C   0  0  0  0  0  0  0  0  0  0  0  0
   33.0023   35.0938   55.9240 C   0  0  0  0  0  0  0  0  0  0  0  0
   33.2801   36.5384   56.2476 C   0  0  0  0  0  0  0  0  0  0  0  0
   33.8281   37.3881   55.3139 C   0  0  0  0  0  0  0  0  0  0  0  0
   34.0567   38.7109   55.6358 C   0  0  0  0  0  0  0  0  0  0  0  0
   33.7523   39.1869   56.8991 C   0  0  0  0  0  0  0  0  0  0  0  0
   33.2071   38.3441   57.8474 C   0  0  0  0  0  0  0  0  0  0  0  0
   32.9654   37.0115   57.5235 C   0  0  0  0  0  0  0  0  0  0  0  0
   30.9731   38.0900   61.9557 C   0  0  0  0  0  0  0  0  0  0  0  0
   30.4626   38.5685   63.1468 C   0  0  0  0  0  0  0  0  0  0  0  0
   29.1136   39.8422   66.4439 H   0  0  0  0  0  0  0  0  0  0  0  0
   29.6740   40.4238   64.8577 H   0  0  0  0  0  0  0  0  0  0  0  0
   28.5881   39.0169   64.9569 H   0  0  0  0  0  0  0  0  0  0  0  0
   32.5957   37.0604   65.2931 H   0  0  0  0  0  0  0  0  0  0  0  0
   33.5111   36.2153   63.1703 H   0  0  0  0  0  0  0  0  0  0  0  0
   30.8767   35.8926   60.0038 H   0  0  0  0  0  0  0  0  0  0  0  0
   31.1943   37.5603   59.4693 H   0  0  0  0  0  0  0  0  0  0  0  0
   34.2761   34.1995   57.4044 H   0  0  0  0  0  0  0  0  0  0  0  0
   32.8455   33.2337   56.9855 H   0  0  0  0  0  0  0  0  0  0  0  0
   33.6819   34.7599   55.1399 H   0  0  0  0  0  0  0  0  0  0  0  0
   31.9728   34.9896   55.5814 H   0  0  0  0  0  0  0  0  0  0  0  0
   34.0681   37.0241   54.3259 H   0  0  0  0  0  0  0  0  0  0  0  0
   34.4833   39.3765   54.9001 H   0  0  0  0  0  0  0  0  0  0  0  0
   33.9422   40.2214   57.1443 H   0  0  0  0  0  0  0  0  0  0  0  0
   32.9695   38.7159   58.8331 H   0  0  0  0  0  0  0  0  0  0  0  0
   30.5170   38.3756   61.0193 H   0  0  0  0  0  0  0  0  0  0  0  0
   29.6075   39.2281   63.1415 H   0  0  0  0  0  0  0  0  0  0  0  0
  1  2  1  0  0  0  0
  1 21  1  0  0  0  0
  1 22  1  0  0  0  0
  1 23  1  0  0  0  0
  2  3  1  0  0  0  0
  3 20  2  0  0  0  0
  3  4  1  0  0  0  0
  4  5  2  0  0  0  0
  4 24  1  0  0  0  0
  5  6  1  0  0  0  0
  5 25  1  0  0  0  0
  6  7  1  0  0  0  0
  6 19  2  0  0  0  0
  7  8  1  0  0  0  0
  8  9  1  0  0  0  0
  8 26  1  0  0  0  0
  8 27  1  0  0  0  0
  9 18  1  0  0  0  0
  9 10  2  0  0  0  0
 10 11  1  0  0  0  0
 11 12  1  0  0  0  0
 11 28  1  0  0  0  0
 11 29  1  0  0  0  0
 12 13  1  0  0  0  0
 12 30  1  0  0  0  0
 12 31  1  0  0  0  0
 13 18  2  0  0  0  0
 13 14  1  0  0  0  0
 14 15  2  0  0  0  0
 14 32  1  0  0  0  0
 15 16  1  0  0  0  0
 15 33  1  0  0  0  0
 16 17  2  0  0  0  0
 16 34  1  0  0  0  0
 17 18  1  0  0  0  0
 17 35  1  0  0  0  0
 19 20  1  0  0  0  0
 19 36  1  0  0  0  0
 20 37  1  0  0  0  0
M  END
$$$$
