ZINC000000024247      none
 OpenBabel11202420153D

 43 46  0  0  0  0  0  0  0  0999 V2000
   31.9346   36.5656   63.3539 O   0  0  0  0  0  0  0  0  0  0  0  0
   31.3724   37.6445   63.3687 C   0  0  0  0  0  0  0  0  0  0  0  0
   30.9237   38.1865   62.2190 N   0  0  0  0  0  0  0  0  0  0  0  0
   31.1185   37.4792   60.9510 C   0  0  0  0  0  0  0  0  0  0  0  0
   32.4519   37.9018   60.3309 C   0  0  0  0  0  0  0  0  0  0  0  0
   32.6523   37.1743   59.0264 C   0  0  0  0  0  0  0  0  0  0  0  0
   32.4463   35.8670   58.8014 C   0  0  0  0  0  0  0  0  0  0  0  0
   32.7300   35.5680   57.4966 N   0  0  0  0  0  0  0  0  0  0  0  0
   32.6538   34.6872   57.0976 H   0  0  0  0  0  0  0  0  0  0  0  0
   33.1453   36.7024   56.8361 C   0  0  0  0  0  0  0  0  0  0  0  0
   33.5514   36.9556   55.5298 C   0  0  0  0  0  0  0  0  0  0  0  0
   33.9176   38.2317   55.1623 C   0  0  0  0  0  0  0  0  0  0  0  0
   33.8857   39.2703   56.0830 C   0  0  0  0  0  0  0  0  0  0  0  0
   33.4902   39.0441   57.3710 C   0  0  0  0  0  0  0  0  0  0  0  0
   33.1149   37.7583   57.7651 C   0  0  0  0  0  0  0  0  0  0  0  0
   31.1826   38.3552   64.6374 C   0  0  0  0  0  0  0  0  0  0  0  0
   30.1196   39.1666   64.7916 C   0  0  0  0  0  0  0  0  0  0  0  0
   29.9648   39.9213   66.0437 C   0  0  0  0  0  0  0  0  0  0  0  0
   28.7462   40.4964   66.4112 C   0  0  0  0  0  0  0  0  0  0  0  0
   28.6753   41.1778   67.6117 C   0  0  0  0  0  0  0  0  0  0  0  0
   29.7313   41.2851   68.3947 N   0  0  0  0  0  0  0  0  0  0  0  0
   30.9016   40.7607   68.0796 C   0  0  0  0  0  0  0  0  0  0  0  0
   31.0619   40.0688   66.8987 C   0  0  0  0  0  0  0  0  0  0  0  0
   32.3898   39.4757   66.5147 C   0  0  0  0  0  0  0  0  0  0  0  0
   32.1815   38.1724   65.7468 C   0  0  0  0  0  0  0  0  0  0  0  0
   30.4755   39.0467   62.2309 H   0  0  0  0  0  0  0  0  0  0  0  0
   31.1264   36.4043   61.1319 H   0  0  0  0  0  0  0  0  0  0  0  0
   30.3056   37.7268   60.2682 H   0  0  0  0  0  0  0  0  0  0  0  0
   32.4440   38.9766   60.1500 H   0  0  0  0  0  0  0  0  0  0  0  0
   33.2647   37.6542   61.0136 H   0  0  0  0  0  0  0  0  0  0  0  0
   32.1048   35.1570   59.5401 H   0  0  0  0  0  0  0  0  0  0  0  0
   33.5799   36.1542   54.8062 H   0  0  0  0  0  0  0  0  0  0  0  0
   34.2322   38.4263   54.1476 H   0  0  0  0  0  0  0  0  0  0  0  0
   34.1756   40.2651   55.7785 H   0  0  0  0  0  0  0  0  0  0  0  0
   33.4683   39.8569   58.0818 H   0  0  0  0  0  0  0  0  0  0  0  0
   29.3856   39.2597   64.0048 H   0  0  0  0  0  0  0  0  0  0  0  0
   27.8796   40.4104   65.7725 H   0  0  0  0  0  0  0  0  0  0  0  0
   27.7415   41.6292   67.9130 H   0  0  0  0  0  0  0  0  0  0  0  0
   31.7389   40.8751   68.7521 H   0  0  0  0  0  0  0  0  0  0  0  0
   32.9700   39.2755   67.4153 H   0  0  0  0  0  0  0  0  0  0  0  0
   32.9329   40.1819   65.8869 H   0  0  0  0  0  0  0  0  0  0  0  0
   31.8189   37.4067   66.4327 H   0  0  0  0  0  0  0  0  0  0  0  0
   33.1328   37.8505   65.3228 H   0  0  0  0  0  0  0  0  0  0  0  0
  1  2  2  0  0  0  0
  2  3  1  0  0  0  0
  2 16  1  0  0  0  0
  3  4  1  0  0  0  0
  3 26  1  0  0  0  0
  4  5  1  0  0  0  0
  4 27  1  0  0  0  0
  4 28  1  0  0  0  0
  5  6  1  0  0  0  0
  5 29  1  0  0  0  0
  5 30  1  0  0  0  0
  6 15  1  0  0  0  0
  6  7  2  0  0  0  0
  7  8  1  0  0  0  0
  7 31  1  0  0  0  0
  8  9  1  0  0  0  0
  8 10  1  0  0  0  0
 10 15  2  0  0  0  0
 10 11  1  0  0  0  0
 11 12  2  0  0  0  0
 11 32  1  0  0  0  0
 12 13  1  0  0  0  0
 12 33  1  0  0  0  0
 13 14  2  0  0  0  0
 13 34  1  0  0  0  0
 14 15  1  0  0  0  0
 14 35  1  0  0  0  0
 16 25  1  0  0  0  0
 16 17  2  0  0  0  0
 17 18  1  0  0  0  0
 17 36  1  0  0  0  0
 18 23  2  0  0  0  0
 18 19  1  0  0  0  0
 19 20  2  0  0  0  0
 19 37  1  0  0  0  0
 20 21  1  0  0  0  0
 20 38  1  0  0  0  0
 21 22  2  0  0  0  0
 22 23  1  0  0  0  0
 22 39  1  0  0  0  0
 23 24  1  0  0  0  0
 24 25  1  0  0  0  0
 24 40  1  0  0  0  0
 24 41  1  0  0  0  0
 25 42  1  0  0  0  0
 25 43  1  0  0  0  0
M  END
$$$$
