ZINC000000020550      none
 OpenBabel11202420153D

 38 40  0  0  0  0  0  0  0  0999 V2000
   35.8667   30.5139   56.5511 N   0  0  0  0  0  0  0  0  0  0  0  0
   35.3116   31.3901   56.0874 C   0  0  0  0  0  0  0  0  0  0  0  0
   34.6120   32.4943   55.5028 C   0  0  0  0  0  0  0  0  0  0  0  0
   35.1188   33.1156   54.3746 C   0  0  0  0  0  0  0  0  0  0  0  0
   34.3392   34.0697   53.6831 C   0  0  0  0  0  0  0  0  0  0  0  0
   33.1089   33.8632   53.0886 C   0  0  0  0  0  0  0  0  0  0  0  0
   32.6791   35.0118   52.5312 N   0  0  0  0  0  0  0  0  0  0  0  0
   31.8384   35.1142   52.0583 H   0  0  0  0  0  0  0  0  0  0  0  0
   33.6013   36.0217   52.7199 C   0  0  0  0  0  0  0  0  0  0  0  0
   33.6325   37.3605   52.3425 C   0  0  0  0  0  0  0  0  0  0  0  0
   34.7132   38.1456   52.6807 C   0  0  0  0  0  0  0  0  0  0  0  0
   35.7759   37.6147   53.3968 C   0  0  0  0  0  0  0  0  0  0  0  0
   35.7631   36.2908   53.7797 C   0  0  0  0  0  0  0  0  0  0  0  0
   34.6778   35.4870   53.4443 C   0  0  0  0  0  0  0  0  0  0  0  0
   33.3603   32.9714   56.1038 C   0  0  0  0  0  0  0  0  0  0  0  0
   32.2959   32.5021   55.7461 O   0  0  0  0  0  0  0  0  0  0  0  0
   33.3900   33.9291   57.0516 N   0  0  0  0  0  0  0  0  0  0  0  0
   32.1410   34.4052   57.6514 C   0  0  0  0  0  0  0  0  0  0  0  0
   32.2987   35.8463   58.0626 C   0  0  0  0  0  0  0  0  0  0  0  0
   31.5831   36.3409   59.1370 C   0  0  0  0  0  0  0  0  0  0  0  0
   31.7314   37.6616   59.5172 C   0  0  0  0  0  0  0  0  0  0  0  0
   32.5873   38.4906   58.8165 C   0  0  0  0  0  0  0  0  0  0  0  0
   33.2989   37.9975   57.7388 C   0  0  0  0  0  0  0  0  0  0  0  0
   33.1546   36.6754   57.3619 C   0  0  0  0  0  0  0  0  0  0  0  0
   36.1102   32.8709   54.0227 H   0  0  0  0  0  0  0  0  0  0  0  0
   32.5729   32.9256   53.0756 H   0  0  0  0  0  0  0  0  0  0  0  0
   32.8106   37.7839   51.7844 H   0  0  0  0  0  0  0  0  0  0  0  0
   34.7332   39.1842   52.3852 H   0  0  0  0  0  0  0  0  0  0  0  0
   36.6168   38.2414   53.6554 H   0  0  0  0  0  0  0  0  0  0  0  0
   36.5914   35.8792   54.3374 H   0  0  0  0  0  0  0  0  0  0  0  0
   34.2384   34.3030   57.3368 H   0  0  0  0  0  0  0  0  0  0  0  0
   31.3337   34.3211   56.9241 H   0  0  0  0  0  0  0  0  0  0  0  0
   31.9052   33.8010   58.5275 H   0  0  0  0  0  0  0  0  0  0  0  0
   30.9110   35.6943   59.6817 H   0  0  0  0  0  0  0  0  0  0  0  0
   31.1751   38.0469   60.3589 H   0  0  0  0  0  0  0  0  0  0  0  0
   32.6998   39.5236   59.1108 H   0  0  0  0  0  0  0  0  0  0  0  0
   33.9673   38.6453   57.1911 H   0  0  0  0  0  0  0  0  0  0  0  0
   33.7103   36.2902   56.5197 H   0  0  0  0  0  0  0  0  0  0  0  0
  1  2  3  0  0  0  0
  2  3  1  0  0  0  0
  3  4  2  0  0  0  0
  3 15  1  0  0  0  0
  4  5  1  0  0  0  0
  4 25  1  0  0  0  0
  5 14  1  0  0  0  0
  5  6  2  0  0  0  0
  6  7  1  0  0  0  0
  6 26  1  0  0  0  0
  7  8  1  0  0  0  0
  7  9  1  0  0  0  0
  9 14  2  0  0  0  0
  9 10  1  0  0  0  0
 10 11  2  0  0  0  0
 10 27  1  0  0  0  0
 11 12  1  0  0  0  0
 11 28  1  0  0  0  0
 12 13  2  0  0  0  0
 12 29  1  0  0  0  0
 13 14  1  0  0  0  0
 13 30  1  0  0  0  0
 15 16  2  0  0  0  0
 15 17  1  0  0  0  0
 17 18  1  0  0  0  0
 17 31  1  0  0  0  0
 18 19  1  0  0  0  0
 18 32  1  0  0  0  0
 18 33  1  0  0  0  0
 19 24  2  0  0  0  0
 19 20  1  0  0  0  0
 20 21  2  0  0  0  0
 20 34  1  0  0  0  0
 21 22  1  0  0  0  0
 21 35  1  0  0  0  0
 22 23  2  0  0  0  0
 22 36  1  0  0  0  0
 23 24  1  0  0  0  0
 23 37  1  0  0  0  0
 24 38  1  0  0  0  0
M  END
$$$$
