ZINC000000000913      none
 OpenBabel11202420153D

 33 34  0  0  0  0  0  0  0  0999 V2000
   23.4159   40.0499   67.9358 N   0  0  0  0  0  0  0  0  0  0  0  0
   24.6776   39.9552   67.4715 C   0  0  0  0  0  0  0  0  0  0  0  0
   24.9829   40.4960   66.4263 O   0  0  0  0  0  0  0  0  0  0  0  0
   25.6008   39.2610   68.1659 N   0  0  0  0  0  0  0  0  0  0  0  0
   26.9110   39.1626   67.6838 C   0  0  0  0  0  0  0  0  0  0  0  0
   27.6750   38.0388   67.9696 C   0  0  0  0  0  0  0  0  0  0  0  0
   28.9678   37.9448   67.4928 C   0  0  0  0  0  0  0  0  0  0  0  0
   29.5016   38.9686   66.7318 C   0  0  0  0  0  0  0  0  0  0  0  0
   31.1518   38.8455   66.1263 S   0  0  0  0  0  0  0  0  0  0  0  0
   31.8285   37.9400   66.9872 O   0  0  0  0  0  0  0  0  0  0  0  0
   31.5944   40.1756   65.8946 O   0  0  0  0  0  0  0  0  0  0  0  0
   31.0714   38.0657   64.5482 C   0  0  0  0  0  0  0  0  0  0  0  0
   31.1524   36.6885   64.4542 C   0  0  0  0  0  0  0  0  0  0  0  0
   31.0901   36.0742   63.2190 C   0  0  0  0  0  0  0  0  0  0  0  0
   30.9459   36.8415   62.0700 C   0  0  0  0  0  0  0  0  0  0  0  0
   30.8883   36.2238   60.8186 N   0  0  0  0  0  0  0  0  0  0  0  0
   30.8647   38.2247   62.1679 C   0  0  0  0  0  0  0  0  0  0  0  0
   30.9276   38.8325   63.4065 C   0  0  0  0  0  0  0  0  0  0  0  0
   28.7453   40.0913   66.4499 C   0  0  0  0  0  0  0  0  0  0  0  0
   27.4498   40.1888   66.9191 C   0  0  0  0  0  0  0  0  0  0  0  0
   23.1723   39.6185   68.7697 H   0  0  0  0  0  0  0  0  0  0  0  0
   22.7514   40.5496   67.4361 H   0  0  0  0  0  0  0  0  0  0  0  0
   25.3572   38.8295   68.9998 H   0  0  0  0  0  0  0  0  0  0  0  0
   27.2588   37.2391   68.5644 H   0  0  0  0  0  0  0  0  0  0  0  0
   29.5624   37.0711   67.7147 H   0  0  0  0  0  0  0  0  0  0  0  0
   31.2650   36.0926   65.3479 H   0  0  0  0  0  0  0  0  0  0  0  0
   31.1540   34.9985   63.1463 H   0  0  0  0  0  0  0  0  0  0  0  0
   30.9491   35.2581   60.7511 H   0  0  0  0  0  0  0  0  0  0  0  0
   30.7876   36.7606   60.0169 H   0  0  0  0  0  0  0  0  0  0  0  0
   30.7529   38.8242   61.2766 H   0  0  0  0  0  0  0  0  0  0  0  0
   30.8650   39.9080   63.4832 H   0  0  0  0  0  0  0  0  0  0  0  0
   29.1666   40.8912   65.8591 H   0  0  0  0  0  0  0  0  0  0  0  0
   26.8583   41.0640   66.6951 H   0  0  0  0  0  0  0  0  0  0  0  0
  1  2  1  0  0  0  0
  1 21  1  0  0  0  0
  1 22  1  0  0  0  0
  2  3  2  0  0  0  0
  2  4  1  0  0  0  0
  4  5  1  0  0  0  0
  4 23  1  0  0  0  0
  5 20  2  0  0  0  0
  5  6  1  0  0  0  0
  6  7  2  0  0  0  0
  6 24  1  0  0  0  0
  7  8  1  0  0  0  0
  7 25  1  0  0  0  0
  8  9  1  0  0  0  0
  8 19  2  0  0  0  0
  9 10  2  0  0  0  0
  9 11  2  0  0  0  0
  9 12  1  0  0  0  0
 12 18  2  0  0  0  0
 12 13  1  0  0  0  0
 13 14  2  0  0  0  0
 13 26  1  0  0  0  0
 14 15  1  0  0  0  0
 14 27  1  0  0  0  0
 15 16  1  0  0  0  0
 15 17  2  0  0  0  0
 16 28  1  0  0  0  0
 16 29  1  0  0  0  0
 17 18  1  0  0  0  0
 17 30  1  0  0  0  0
 18 31  1  0  0  0  0
 19 20  1  0  0  0  0
 19 32  1  0  0  0  0
 20 33  1  0  0  0  0
M  END
$$$$
