ZINC000000028521      none
 OpenBabel11202420163D

 27 28  0  0  0  0  0  0  0  0999 V2000
   32.7555   34.8806   58.0968 C   0  0  0  0  0  0  0  0  0  0  0  0
   32.6318   36.1127   58.8099 O   0  0  0  0  0  0  0  0  0  0  0  0
   32.9295   37.2521   58.1299 C   0  0  0  0  0  0  0  0  0  0  0  0
   33.3256   37.1861   56.8039 C   0  0  0  0  0  0  0  0  0  0  0  0
   33.6333   38.3449   56.1157 C   0  0  0  0  0  0  0  0  0  0  0  0
   33.5415   39.5726   56.7452 C   0  0  0  0  0  0  0  0  0  0  0  0
   33.1412   39.6477   58.0658 C   0  0  0  0  0  0  0  0  0  0  0  0
   32.8307   38.4891   58.7630 C   0  0  0  0  0  0  0  0  0  0  0  0
   32.4248   38.5625   60.1015 N   0  0  0  0  0  0  0  0  0  0  0  0
   31.2157   38.0914   60.4657 C   0  0  0  0  0  0  0  0  0  0  0  0
   30.4774   37.6026   59.6324 O   0  0  0  0  0  0  0  0  0  0  0  0
   30.7877   38.1688   61.8771 C   0  0  0  0  0  0  0  0  0  0  0  0
   29.5543   37.7230   62.4086 C   0  0  0  0  0  0  0  0  0  0  0  0
   29.6128   37.9930   63.7339 C   0  0  0  0  0  0  0  0  0  0  0  0
   30.8096   38.5710   63.9719 N   0  0  0  0  0  0  0  0  0  0  0  0
   31.1185   38.8693   64.8416 H   0  0  0  0  0  0  0  0  0  0  0  0
   31.4803   38.6695   62.8806 N   0  0  0  0  0  0  0  0  0  0  0  0
   32.4893   34.0524   58.7535 H   0  0  0  0  0  0  0  0  0  0  0  0
   32.0876   34.8906   57.2356 H   0  0  0  0  0  0  0  0  0  0  0  0
   33.7842   34.7589   57.7573 H   0  0  0  0  0  0  0  0  0  0  0  0
   33.3987   36.2288   56.3093 H   0  0  0  0  0  0  0  0  0  0  0  0
   33.9459   38.2911   55.0833 H   0  0  0  0  0  0  0  0  0  0  0  0
   33.7829   40.4752   56.2034 H   0  0  0  0  0  0  0  0  0  0  0  0
   33.0704   40.6079   58.5550 H   0  0  0  0  0  0  0  0  0  0  0  0
   33.0137   38.9524   60.7663 H   0  0  0  0  0  0  0  0  0  0  0  0
   28.7398   37.2605   61.8711 H   0  0  0  0  0  0  0  0  0  0  0  0
   28.8450   37.7852   64.4644 H   0  0  0  0  0  0  0  0  0  0  0  0
  1  2  1  0  0  0  0
  1 18  1  0  0  0  0
  1 19  1  0  0  0  0
  1 20  1  0  0  0  0
  2  3  1  0  0  0  0
  3  8  2  0  0  0  0
  3  4  1  0  0  0  0
  4  5  2  0  0  0  0
  4 21  1  0  0  0  0
  5  6  1  0  0  0  0
  5 22  1  0  0  0  0
  6  7  2  0  0  0  0
  6 23  1  0  0  0  0
  7  8  1  0  0  0  0
  7 24  1  0  0  0  0
  8  9  1  0  0  0  0
  9 10  1  0  0  0  0
  9 25  1  0  0  0  0
 10 11  2  0  0  0  0
 10 12  1  0  0  0  0
 12 17  2  0  0  0  0
 12 13  1  0  0  0  0
 13 14  2  0  0  0  0
 13 26  1  0  0  0  0
 14 15  1  0  0  0  0
 14 27  1  0  0  0  0
 15 16  1  0  0  0  0
 15 17  1  0  0  0  0
M  END
$$$$
