ZINC000000055389      none
 OpenBabel11202420153D

 36 38  0  0  0  0  0  0  0  0999 V2000
   32.5369   38.2567   60.8201 O   0  0  0  0  0  0  0  0  0  0  0  0
   31.5763   37.5538   60.5878 C   0  0  0  0  0  0  0  0  0  0  0  0
   30.6648   37.1283   61.7100 C   0  0  0  0  0  0  0  0  0  0  0  0
   31.1643   37.7059   63.0093 C   0  0  0  0  0  0  0  0  0  0  0  0
   30.7214   38.9480   63.4308 C   0  0  0  0  0  0  0  0  0  0  0  0
   29.8417   39.6435   62.6774 F   0  0  0  0  0  0  0  0  0  0  0  0
   31.1847   39.4796   64.6223 C   0  0  0  0  0  0  0  0  0  0  0  0
   32.0811   38.7658   65.3952 C   0  0  0  0  0  0  0  0  0  0  0  0
   32.5234   37.5258   64.9744 C   0  0  0  0  0  0  0  0  0  0  0  0
   32.0651   36.9961   63.7814 C   0  0  0  0  0  0  0  0  0  0  0  0
   32.6218   35.4380   63.2533 Cl  0  0  0  0  0  0  0  0  0  0  0  0
   31.3238   37.1531   59.3260 N   0  0  0  0  0  0  0  0  0  0  0  0
   32.1712   37.5486   58.2827 N   0  0  0  0  0  0  0  0  0  0  0  0
   32.4560   38.8605   57.8651 N   0  0  0  0  0  0  0  0  0  0  0  0
   33.2826   38.7672   56.8803 N   0  0  0  0  0  0  0  0  0  0  0  0
   33.5399   37.5343   56.6292 N   0  0  0  0  0  0  0  0  0  0  0  0
   32.8863   36.7495   57.4572 C   0  0  0  0  0  0  0  0  0  0  0  0
   32.9226   35.3653   57.4799 N   0  0  0  0  0  0  0  0  0  0  0  0
   33.7122   34.6716   56.5584 C   0  0  0  0  0  0  0  0  0  0  0  0
   34.2650   33.4439   56.9003 C   0  0  0  0  0  0  0  0  0  0  0  0
   35.0409   32.7592   55.9860 C   0  0  0  0  0  0  0  0  0  0  0  0
   35.2761   33.2993   54.7342 C   0  0  0  0  0  0  0  0  0  0  0  0
   34.7314   34.5232   54.3928 C   0  0  0  0  0  0  0  0  0  0  0  0
   33.9505   35.2110   55.3007 C   0  0  0  0  0  0  0  0  0  0  0  0
   30.6537   36.0404   61.7765 H   0  0  0  0  0  0  0  0  0  0  0  0
   29.6554   37.4909   61.5155 H   0  0  0  0  0  0  0  0  0  0  0  0
   30.8426   40.4502   64.9497 H   0  0  0  0  0  0  0  0  0  0  0  0
   32.4392   39.1788   66.3266 H   0  0  0  0  0  0  0  0  0  0  0  0
   33.2266   36.9704   65.5772 H   0  0  0  0  0  0  0  0  0  0  0  0
   30.5556   36.5909   59.1401 H   0  0  0  0  0  0  0  0  0  0  0  0
   32.3999   34.8772   58.1353 H   0  0  0  0  0  0  0  0  0  0  0  0
   34.0850   33.0236   57.8788 H   0  0  0  0  0  0  0  0  0  0  0  0
   35.4677   31.8028   56.2496 H   0  0  0  0  0  0  0  0  0  0  0  0
   35.8872   32.7636   54.0230 H   0  0  0  0  0  0  0  0  0  0  0  0
   34.9171   34.9420   53.4148 H   0  0  0  0  0  0  0  0  0  0  0  0
   33.5258   36.1672   55.0333 H   0  0  0  0  0  0  0  0  0  0  0  0
  1  2  2  0  0  0  0
  2  3  1  0  0  0  0
  2 12  1  0  0  0  0
  3  4  1  0  0  0  0
  3 25  1  0  0  0  0
  3 26  1  0  0  0  0
  4 10  2  0  0  0  0
  4  5  1  0  0  0  0
  5  6  1  0  0  0  0
  5  7  2  0  0  0  0
  7  8  1  0  0  0  0
  7 27  1  0  0  0  0
  8  9  2  0  0  0  0
  8 28  1  0  0  0  0
  9 10  1  0  0  0  0
  9 29  1  0  0  0  0
 10 11  1  0  0  0  0
 12 13  1  0  0  0  0
 12 30  1  0  0  0  0
 13 17  1  0  0  0  0
 13 14  1  0  0  0  0
 14 15  2  0  0  0  0
 15 16  1  0  0  0  0
 16 17  2  0  0  0  0
 17 18  1  0  0  0  0
 18 19  1  0  0  0  0
 18 31  1  0  0  0  0
 19 24  2  0  0  0  0
 19 20  1  0  0  0  0
 20 21  2  0  0  0  0
 20 32  1  0  0  0  0
 21 22  1  0  0  0  0
 21 33  1  0  0  0  0
 22 23  2  0  0  0  0
 22 34  1  0  0  0  0
 23 24  1  0  0  0  0
 23 35  1  0  0  0  0
 24 36  1  0  0  0  0
M  END
$$$$
