ZINC000000039223      none
 OpenBabel11202420153D

 29 30  0  0  0  0  0  0  0  0999 V2000
   34.7460   35.3730   53.7146 O   0  0  0  0  0  0  0  0  0  0  0  0
   33.6142   35.2813   54.1461 C   0  0  0  0  0  0  0  0  0  0  0  0
   32.9653   36.3809   54.5716 O   0  0  0  0  0  0  0  0  0  0  0  0
   33.7753   37.4533   55.1210 C   0  0  0  0  0  0  0  0  0  0  0  0
   33.3648   37.7127   56.5476 C   0  0  0  0  0  0  0  0  0  0  0  0
   33.4927   38.9804   57.0840 C   0  0  0  0  0  0  0  0  0  0  0  0
   33.1117   39.2195   58.3911 C   0  0  0  0  0  0  0  0  0  0  0  0
   32.6125   38.1886   59.1651 C   0  0  0  0  0  0  0  0  0  0  0  0
   32.4896   36.9198   58.6304 C   0  0  0  0  0  0  0  0  0  0  0  0
   32.8657   36.6819   57.3217 C   0  0  0  0  0  0  0  0  0  0  0  0
   33.0105   34.0827   54.1984 O   0  0  0  0  0  0  0  0  0  0  0  0
   33.7260   33.1096   54.3556 N   0  0  0  0  0  0  0  0  0  0  0  0
   34.0455   32.6331   55.5652 C   0  0  0  0  0  0  0  0  0  0  0  0
   33.6782   33.0986   56.6230 O   0  0  0  0  0  0  0  0  0  0  0  0
   34.9431   31.4256   55.4033 C   0  0  0  0  0  0  0  0  0  0  0  0
   35.0884   31.2855   53.8743 C   0  0  0  0  0  0  0  0  0  0  0  0
   34.2577   32.4285   53.3329 C   0  0  0  0  0  0  0  0  0  0  0  0
   34.0983   32.6865   52.1587 O   0  0  0  0  0  0  0  0  0  0  0  0
   34.8264   37.1661   55.0918 H   0  0  0  0  0  0  0  0  0  0  0  0
   33.6293   38.3580   54.5307 H   0  0  0  0  0  0  0  0  0  0  0  0
   33.8868   39.7848   56.4806 H   0  0  0  0  0  0  0  0  0  0  0  0
   33.2081   40.2106   58.8090 H   0  0  0  0  0  0  0  0  0  0  0  0
   32.3189   38.3744   60.1877 H   0  0  0  0  0  0  0  0  0  0  0  0
   32.1000   36.1143   59.2351 H   0  0  0  0  0  0  0  0  0  0  0  0
   32.7700   35.6905   56.9040 H   0  0  0  0  0  0  0  0  0  0  0  0
   35.9136   31.6043   55.8661 H   0  0  0  0  0  0  0  0  0  0  0  0
   34.4725   30.5383   55.8269 H   0  0  0  0  0  0  0  0  0  0  0  0
   34.6901   30.3285   53.5373 H   0  0  0  0  0  0  0  0  0  0  0  0
   36.1311   31.3945   53.5765 H   0  0  0  0  0  0  0  0  0  0  0  0
  1  2  2  0  0  0  0
  2  3  1  0  0  0  0
  2 11  1  0  0  0  0
  3  4  1  0  0  0  0
  4  5  1  0  0  0  0
  4 19  1  0  0  0  0
  4 20  1  0  0  0  0
  5 10  2  0  0  0  0
  5  6  1  0  0  0  0
  6  7  2  0  0  0  0
  6 21  1  0  0  0  0
  7  8  1  0  0  0  0
  7 22  1  0  0  0  0
  8  9  2  0  0  0  0
  8 23  1  0  0  0  0
  9 10  1  0  0  0  0
  9 24  1  0  0  0  0
 10 25  1  0  0  0  0
 11 12  1  0  0  0  0
 12 17  1  0  0  0  0
 12 13  1  0  0  0  0
 13 14  2  0  0  0  0
 13 15  1  0  0  0  0
 15 16  1  0  0  0  0
 15 26  1  0  0  0  0
 15 27  1  0  0  0  0
 16 17  1  0  0  0  0
 16 28  1  0  0  0  0
 16 29  1  0  0  0  0
 17 18  2  0  0  0  0
M  END
$$$$
