ZINC000000024638      none
 OpenBabel11202420153D

 38 39  0  0  0  0  0  0  0  0999 V2000
   32.8015   33.4805   55.9536 C   0  0  0  0  0  0  0  0  0  0  0  0
   32.4095   33.6225   57.3205 O   0  0  0  0  0  0  0  0  0  0  0  0
   32.4806   34.8694   57.8563 C   0  0  0  0  0  0  0  0  0  0  0  0
   32.1144   35.0789   59.1783 C   0  0  0  0  0  0  0  0  0  0  0  0
   32.1866   36.3464   59.7238 C   0  0  0  0  0  0  0  0  0  0  0  0
   31.7883   36.5712   61.1598 C   0  0  0  0  0  0  0  0  0  0  0  0
   32.0730   35.3063   61.9720 C   0  0  0  0  0  0  0  0  0  0  0  0
   31.6748   35.5310   63.4079 C   0  0  0  0  0  0  0  0  0  0  0  0
   30.3907   35.2302   63.8227 C   0  0  0  0  0  0  0  0  0  0  0  0
   30.0221   35.4293   65.1402 C   0  0  0  0  0  0  0  0  0  0  0  0
   30.9372   35.9421   66.0456 C   0  0  0  0  0  0  0  0  0  0  0  0
   30.5745   36.1442   67.3406 O   0  0  0  0  0  0  0  0  0  0  0  0
   32.2279   36.2502   65.6268 C   0  0  0  0  0  0  0  0  0  0  0  0
   33.1297   36.7533   66.5117 O   0  0  0  0  0  0  0  0  0  0  0  0
   32.5925   36.0429   64.3061 C   0  0  0  0  0  0  0  0  0  0  0  0
   32.6177   37.4092   58.9532 C   0  0  0  0  0  0  0  0  0  0  0  0
   32.9895   37.2039   57.6321 C   0  0  0  0  0  0  0  0  0  0  0  0
   33.4181   38.2487   56.8760 O   0  0  0  0  0  0  0  0  0  0  0  0
   33.7846   37.9642   55.5244 C   0  0  0  0  0  0  0  0  0  0  0  0
   32.9185   35.9331   57.0826 C   0  0  0  0  0  0  0  0  0  0  0  0
   32.1659   34.1056   55.3264 H   0  0  0  0  0  0  0  0  0  0  0  0
   33.8406   33.7894   55.8396 H   0  0  0  0  0  0  0  0  0  0  0  0
   32.6973   32.4382   55.6521 H   0  0  0  0  0  0  0  0  0  0  0  0
   31.7731   34.2505   59.7815 H   0  0  0  0  0  0  0  0  0  0  0  0
   30.7244   36.8032   61.2096 H   0  0  0  0  0  0  0  0  0  0  0  0
   32.3610   37.4029   61.5698 H   0  0  0  0  0  0  0  0  0  0  0  0
   31.5002   34.4745   61.5620 H   0  0  0  0  0  0  0  0  0  0  0  0
   33.1370   35.0743   61.9221 H   0  0  0  0  0  0  0  0  0  0  0  0
   29.6752   34.8350   63.1169 H   0  0  0  0  0  0  0  0  0  0  0  0
   29.0197   35.1898   65.4626 H   0  0  0  0  0  0  0  0  0  0  0  0
   29.6590   35.9009   67.5352 H   0  0  0  0  0  0  0  0  0  0  0  0
   32.7829   36.8621   67.4078 H   0  0  0  0  0  0  0  0  0  0  0  0
   33.5938   36.2809   63.9787 H   0  0  0  0  0  0  0  0  0  0  0  0
   32.6690   38.3998   59.3805 H   0  0  0  0  0  0  0  0  0  0  0  0
   34.1072   38.8828   55.0344 H   0  0  0  0  0  0  0  0  0  0  0  0
   34.6002   37.2410   55.5137 H   0  0  0  0  0  0  0  0  0  0  0  0
   32.9263   37.5516   54.9943 H   0  0  0  0  0  0  0  0  0  0  0  0
   33.2043   35.7719   56.0536 H   0  0  0  0  0  0  0  0  0  0  0  0
  1  2  1  0  0  0  0
  1 21  1  0  0  0  0
  1 22  1  0  0  0  0
  1 23  1  0  0  0  0
  2  3  1  0  0  0  0
  3 20  2  0  0  0  0
  3  4  1  0  0  0  0
  4  5  2  0  0  0  0
  4 24  1  0  0  0  0
  5  6  1  0  0  0  0
  5 16  1  0  0  0  0
  6  7  1  0  0  0  0
  6 25  1  0  0  0  0
  6 26  1  0  0  0  0
  7  8  1  0  0  0  0
  7 27  1  0  0  0  0
  7 28  1  0  0  0  0
  8 15  2  0  0  0  0
  8  9  1  0  0  0  0
  9 10  2  0  0  0  0
  9 29  1  0  0  0  0
 10 11  1  0  0  0  0
 10 30  1  0  0  0  0
 11 12  1  0  0  0  0
 11 13  2  0  0  0  0
 12 31  1  0  0  0  0
 13 14  1  0  0  0  0
 13 15  1  0  0  0  0
 14 32  1  0  0  0  0
 15 33  1  0  0  0  0
 16 17  2  0  0  0  0
 16 34  1  0  0  0  0
 17 18  1  0  0  0  0
 17 20  1  0  0  0  0
 18 19  1  0  0  0  0
 19 35  1  0  0  0  0
 19 36  1  0  0  0  0
 19 37  1  0  0  0  0
 20 38  1  0  0  0  0
M  END
$$$$
