ZINC000000040018      none
 OpenBabel11202420153D

 24 25  0  0  0  0  0  0  0  0999 V2000
   33.6927   33.3478   53.1744 C   0  0  0  0  0  0  0  0  0  0  0  0
   33.6080   34.8453   53.3201 C   0  0  0  0  0  0  0  0  0  0  0  0
   34.2318   35.4503   54.3217 C   0  0  0  0  0  0  0  0  0  0  0  0
   34.3630   36.9221   54.3292 C   0  0  0  0  0  0  0  0  0  0  0  0
   33.8113   37.6682   55.3717 C   0  0  0  0  0  0  0  0  0  0  0  0
   33.9301   39.0423   55.3744 C   0  0  0  0  0  0  0  0  0  0  0  0
   34.5964   39.6874   54.3429 C   0  0  0  0  0  0  0  0  0  0  0  0
   35.1496   38.9477   53.2986 C   0  0  0  0  0  0  0  0  0  0  0  0
   35.0338   37.5698   53.2910 C   0  0  0  0  0  0  0  0  0  0  0  0
   35.7433   39.8089   52.4211 O   0  0  0  0  0  0  0  0  0  0  0  0
   35.1954   41.1053   52.7248 C   0  0  0  0  0  0  0  0  0  0  0  0
   34.8447   41.0108   54.1180 O   0  0  0  0  0  0  0  0  0  0  0  0
   32.8284   35.6410   52.3450 N   0  0  0  0  0  0  0  0  0  0  0  0
   33.1267   35.6196   51.1644 O   0  0  0  0  0  0  0  0  0  0  0  0
   31.8886   36.3169   52.7236 O   0  0  0  0  0  0  0  0  0  0  0  0
   32.8748   32.8823   53.7243 H   0  0  0  0  0  0  0  0  0  0  0  0
   33.6200   33.0805   52.1201 H   0  0  0  0  0  0  0  0  0  0  0  0
   34.6446   32.9972   53.5732 H   0  0  0  0  0  0  0  0  0  0  0  0
   34.6438   34.8673   55.1321 H   0  0  0  0  0  0  0  0  0  0  0  0
   33.2916   37.1695   56.1765 H   0  0  0  0  0  0  0  0  0  0  0  0
   33.5025   39.6179   56.1820 H   0  0  0  0  0  0  0  0  0  0  0  0
   35.4622   36.9956   52.4828 H   0  0  0  0  0  0  0  0  0  0  0  0
   34.3100   41.2982   52.1192 H   0  0  0  0  0  0  0  0  0  0  0  0
   35.9433   41.8829   52.5701 H   0  0  0  0  0  0  0  0  0  0  0  0
  1  2  1  0  0  0  0
  1 16  1  0  0  0  0
  1 17  1  0  0  0  0
  1 18  1  0  0  0  0
  2  3  2  0  0  0  0
  2 13  1  0  0  0  0
  3  4  1  0  0  0  0
  3 19  1  0  0  0  0
  4  9  2  0  0  0  0
  4  5  1  0  0  0  0
  5  6  2  0  0  0  0
  5 20  1  0  0  0  0
  6  7  1  0  0  0  0
  6 21  1  0  0  0  0
  7 12  1  0  0  0  0
  7  8  2  0  0  0  0
  8  9  1  0  0  0  0
  8 10  1  0  0  0  0
  9 22  1  0  0  0  0
 10 11  1  0  0  0  0
 11 12  1  0  0  0  0
 11 23  1  0  0  0  0
 11 24  1  0  0  0  0
 13 14  2  0  0  0  0
 13 15  2  0  0  0  0
M  END
$$$$
