ZINC000000021868      none
 OpenBabel11202420153D

 29 30  0  0  0  0  0  0  0  0999 V2000
   34.7166   33.7842   55.1991 C   0  0  0  0  0  0  0  0  0  0  0  0
   33.9821   35.0322   55.4215 N   0  0  0  0  0  0  0  0  0  0  0  0
   34.4399   36.2087   54.8694 C   0  0  0  0  0  0  0  0  0  0  0  0
   35.1324   36.3526   53.7285 O   0  0  0  0  0  0  0  0  0  0  0  0
   35.3938   37.5102   53.5039 N   0  0  0  0  0  0  0  0  0  0  0  0
   34.9336   38.3125   54.4192 C   0  0  0  0  0  0  0  0  0  0  0  0
   34.2799   37.4940   55.3795 C   0  0  0  0  0  0  0  0  0  0  0  0
   33.5907   37.9081   56.6177 C   0  0  0  0  0  0  0  0  0  0  0  0
   33.5547   39.1893   56.9175 C   0  0  0  0  0  0  0  0  0  0  0  0
   32.8850   39.7138   58.1571 C   0  0  0  0  0  0  0  0  0  0  0  0
   31.9534   38.6440   58.7324 C   0  0  0  0  0  0  0  0  0  0  0  0
   32.6916   37.3733   58.8199 N   0  0  0  0  0  0  0  0  0  0  0  0
   31.9587   36.3938   59.6333 C   0  0  0  0  0  0  0  0  0  0  0  0
   32.9629   36.8483   57.4765 C   0  0  0  0  0  0  0  0  0  0  0  0
   34.2071   32.9668   55.7094 H   0  0  0  0  0  0  0  0  0  0  0  0
   34.7606   33.5741   54.1304 H   0  0  0  0  0  0  0  0  0  0  0  0
   35.7285   33.8833   55.5919 H   0  0  0  0  0  0  0  0  0  0  0  0
   33.1736   35.0301   55.9574 H   0  0  0  0  0  0  0  0  0  0  0  0
   35.0311   39.3878   54.4449 H   0  0  0  0  0  0  0  0  0  0  0  0
   34.0248   39.8922   56.2457 H   0  0  0  0  0  0  0  0  0  0  0  0
   32.3058   40.6030   57.9078 H   0  0  0  0  0  0  0  0  0  0  0  0
   33.6430   39.9705   58.8970 H   0  0  0  0  0  0  0  0  0  0  0  0
   31.6213   38.9438   59.7263 H   0  0  0  0  0  0  0  0  0  0  0  0
   31.0894   38.5213   58.0793 H   0  0  0  0  0  0  0  0  0  0  0  0
   30.9592   36.2548   59.2215 H   0  0  0  0  0  0  0  0  0  0  0  0
   32.4912   35.4427   59.6238 H   0  0  0  0  0  0  0  0  0  0  0  0
   31.8822   36.7571   60.6581 H   0  0  0  0  0  0  0  0  0  0  0  0
   32.0262   36.5241   57.0230 H   0  0  0  0  0  0  0  0  0  0  0  0
   33.6402   35.9977   57.5532 H   0  0  0  0  0  0  0  0  0  0  0  0
  1  2  1  0  0  0  0
  1 15  1  0  0  0  0
  1 16  1  0  0  0  0
  1 17  1  0  0  0  0
  2  3  1  0  0  0  0
  2 18  1  0  0  0  0
  3  7  2  0  0  0  0
  3  4  1  0  0  0  0
  4  5  1  0  0  0  0
  5  6  2  0  0  0  0
  6  7  1  0  0  0  0
  6 19  1  0  0  0  0
  7  8  1  0  0  0  0
  8 14  1  0  0  0  0
  8  9  2  0  0  0  0
  9 10  1  0  0  0  0
  9 20  1  0  0  0  0
 10 11  1  0  0  0  0
 10 21  1  0  0  0  0
 10 22  1  0  0  0  0
 11 12  1  0  0  0  0
 11 23  1  0  0  0  0
 11 24  1  0  0  0  0
 12 13  1  0  0  0  0
 12 14  1  0  0  0  0
 13 25  1  0  0  0  0
 13 26  1  0  0  0  0
 13 27  1  0  0  0  0
 14 28  1  0  0  0  0
 14 29  1  0  0  0  0
M  END
$$$$
