ZINC000000050797      none
 OpenBabel11202420153D

 31 32  0  0  0  0  0  0  0  0999 V2000
   29.9311   36.8334   64.7667 C   0  0  0  0  0  0  0  0  0  0  0  0
   30.4991   36.8532   63.3710 C   0  0  0  0  0  0  0  0  0  0  0  0
   31.8699   36.9144   63.1866 C   0  0  0  0  0  0  0  0  0  0  0  0
   32.4013   36.9267   61.9137 C   0  0  0  0  0  0  0  0  0  0  0  0
   31.5538   36.8901   60.8051 C   0  0  0  0  0  0  0  0  0  0  0  0
   32.0743   36.9085   59.5404 N   0  0  0  0  0  0  0  0  0  0  0  0
   32.3680   35.7890   58.9401 C   0  0  0  0  0  0  0  0  0  0  0  0
   33.0335   35.8104   57.6290 C   0  0  0  0  0  0  0  0  0  0  0  0
   33.3540   37.0296   57.0226 C   0  0  0  0  0  0  0  0  0  0  0  0
   33.9783   37.0426   55.7935 C   0  0  0  0  0  0  0  0  0  0  0  0
   34.4037   38.6915   54.9711 Br  0  0  0  0  0  0  0  0  0  0  0  0
   34.2906   35.8525   55.1552 C   0  0  0  0  0  0  0  0  0  0  0  0
   33.9796   34.6408   55.7434 C   0  0  0  0  0  0  0  0  0  0  0  0
   34.3760   33.1572   54.9337 Cl  0  0  0  0  0  0  0  0  0  0  0  0
   33.3515   34.6086   56.9794 C   0  0  0  0  0  0  0  0  0  0  0  0
   33.0460   33.4191   57.5583 O   0  0  0  0  0  0  0  0  0  0  0  0
   30.1652   36.8288   60.9957 C   0  0  0  0  0  0  0  0  0  0  0  0
   29.3081   36.7864   59.8957 N   0  0  0  0  0  0  0  0  0  0  0  0
   29.6485   36.8107   62.2825 C   0  0  0  0  0  0  0  0  0  0  0  0
   29.8401   35.8020   65.1073 H   0  0  0  0  0  0  0  0  0  0  0  0
   30.5946   37.3801   65.4367 H   0  0  0  0  0  0  0  0  0  0  0  0
   28.9478   37.3037   64.7655 H   0  0  0  0  0  0  0  0  0  0  0  0
   32.5265   36.9472   64.0435 H   0  0  0  0  0  0  0  0  0  0  0  0
   33.4715   36.9696   61.7749 H   0  0  0  0  0  0  0  0  0  0  0  0
   32.1225   34.8460   59.4058 H   0  0  0  0  0  0  0  0  0  0  0  0
   33.1121   37.9592   57.5162 H   0  0  0  0  0  0  0  0  0  0  0  0
   34.7799   35.8720   54.1926 H   0  0  0  0  0  0  0  0  0  0  0  0
   33.3045   32.6487   57.0341 H   0  0  0  0  0  0  0  0  0  0  0  0
   29.6718   36.7994   58.9967 H   0  0  0  0  0  0  0  0  0  0  0  0
   28.3484   36.7440   60.0301 H   0  0  0  0  0  0  0  0  0  0  0  0
   28.5803   36.7639   62.4343 H   0  0  0  0  0  0  0  0  0  0  0  0
  1  2  1  0  0  0  0
  1 20  1  0  0  0  0
  1 21  1  0  0  0  0
  1 22  1  0  0  0  0
  2 19  2  0  0  0  0
  2  3  1  0  0  0  0
  3  4  2  0  0  0  0
  3 23  1  0  0  0  0
  4  5  1  0  0  0  0
  4 24  1  0  0  0  0
  5  6  1  0  0  0  0
  5 17  2  0  0  0  0
  6  7  2  0  0  0  0
  7  8  1  0  0  0  0
  7 25  1  0  0  0  0
  8 15  2  0  0  0  0
  8  9  1  0  0  0  0
  9 10  2  0  0  0  0
  9 26  1  0  0  0  0
 10 11  1  0  0  0  0
 10 12  1  0  0  0  0
 12 13  2  0  0  0  0
 12 27  1  0  0  0  0
 13 14  1  0  0  0  0
 13 15  1  0  0  0  0
 15 16  1  0  0  0  0
 16 28  1  0  0  0  0
 17 18  1  0  0  0  0
 17 19  1  0  0  0  0
 18 29  1  0  0  0  0
 18 30  1  0  0  0  0
 19 31  1  0  0  0  0
M  END
$$$$
