ZINC000000037014      none
 OpenBabel11202420153D

 34 36  0  0  0  0  0  0  0  0999 V2000
   29.7930   36.7838   59.7024 O   0  0  0  0  0  0  0  0  0  0  0  0
   30.6182   36.7232   60.5930 C   0  0  0  0  0  0  0  0  0  0  0  0
   31.8805   36.3400   60.3172 N   0  0  0  0  0  0  0  0  0  0  0  0
   32.2418   36.0111   59.0041 N   0  0  0  0  0  0  0  0  0  0  0  0
   32.1169   34.7420   58.5853 C   0  0  0  0  0  0  0  0  0  0  0  0
   31.5177   33.5724   59.6826 S   0  0  0  0  0  0  0  0  0  0  0  0
   32.4426   34.3500   57.3416 N   0  0  0  0  0  0  0  0  0  0  0  0
   32.3342   33.4201   57.0874 H   0  0  0  0  0  0  0  0  0  0  0  0
   32.9325   35.2618   56.4184 C   0  0  0  0  0  0  0  0  0  0  0  0
   33.2749   34.8787   55.1306 C   0  0  0  0  0  0  0  0  0  0  0  0
   33.7595   35.8179   54.2422 C   0  0  0  0  0  0  0  0  0  0  0  0
   33.9076   37.1423   54.6249 C   0  0  0  0  0  0  0  0  0  0  0  0
   33.5726   37.5419   55.9018 C   0  0  0  0  0  0  0  0  0  0  0  0
   33.0826   36.6043   56.8076 C   0  0  0  0  0  0  0  0  0  0  0  0
   32.7096   36.9771   58.1841 C   0  0  0  0  0  0  0  0  0  0  0  0
   32.8198   38.1245   58.5711 O   0  0  0  0  0  0  0  0  0  0  0  0
   30.2370   37.0703   61.9786 C   0  0  0  0  0  0  0  0  0  0  0  0
   30.3609   38.3849   62.4314 C   0  0  0  0  0  0  0  0  0  0  0  0
   29.9990   38.7029   63.7239 C   0  0  0  0  0  0  0  0  0  0  0  0
   29.5245   37.7199   64.5745 C   0  0  0  0  0  0  0  0  0  0  0  0
   29.4037   36.4142   64.1336 C   0  0  0  0  0  0  0  0  0  0  0  0
   28.8949   35.3694   65.0501 N   0  0  0  0  0  0  0  0  0  0  0  0
   28.5829   35.6594   66.1912 O   0  0  0  0  0  0  0  0  0  0  0  0
   28.7882   34.2192   64.6634 O   0  0  0  0  0  0  0  0  0  0  0  0
   29.7573   36.0838   62.8414 C   0  0  0  0  0  0  0  0  0  0  0  0
   32.5389   36.2917   61.0279 H   0  0  0  0  0  0  0  0  0  0  0  0
   33.1626   33.8494   54.8233 H   0  0  0  0  0  0  0  0  0  0  0  0
   34.0255   35.5183   53.2393 H   0  0  0  0  0  0  0  0  0  0  0  0
   34.2880   37.8656   53.9188 H   0  0  0  0  0  0  0  0  0  0  0  0
   33.6936   38.5733   56.1984 H   0  0  0  0  0  0  0  0  0  0  0  0
   30.7357   39.1520   61.7700 H   0  0  0  0  0  0  0  0  0  0  0  0
   30.0904   39.7203   64.0742 H   0  0  0  0  0  0  0  0  0  0  0  0
   29.2468   37.9733   65.5870 H   0  0  0  0  0  0  0  0  0  0  0  0
   29.6626   35.0640   62.4984 H   0  0  0  0  0  0  0  0  0  0  0  0
  1  2  2  0  0  0  0
  2  3  1  0  0  0  0
  2 17  1  0  0  0  0
  3  4  1  0  0  0  0
  3 26  1  0  0  0  0
  4 15  1  0  0  0  0
  4  5  1  0  0  0  0
  5  6  2  0  0  0  0
  5  7  1  0  0  0  0
  7  8  1  0  0  0  0
  7  9  1  0  0  0  0
  9 14  2  0  0  0  0
  9 10  1  0  0  0  0
 10 11  2  0  0  0  0
 10 27  1  0  0  0  0
 11 12  1  0  0  0  0
 11 28  1  0  0  0  0
 12 13  2  0  0  0  0
 12 29  1  0  0  0  0
 13 14  1  0  0  0  0
 13 30  1  0  0  0  0
 14 15  1  0  0  0  0
 15 16  2  0  0  0  0
 17 25  2  0  0  0  0
 17 18  1  0  0  0  0
 18 19  2  0  0  0  0
 18 31  1  0  0  0  0
 19 20  1  0  0  0  0
 19 32  1  0  0  0  0
 20 21  2  0  0  0  0
 20 33  1  0  0  0  0
 21 22  1  0  0  0  0
 21 25  1  0  0  0  0
 22 23  2  0  0  0  0
 22 24  2  0  0  0  0
 25 34  1  0  0  0  0
M  END
$$$$
