ZINC000000053865      none
 OpenBabel11202420153D

 29 31  0  0  0  0  0  0  0  0999 V2000
   33.3884   39.9111   58.0004 N   0  0  0  0  0  0  0  0  0  0  0  0
   33.6066   39.1069   56.8879 C   0  0  0  0  0  0  0  0  0  0  0  0
   34.1190   39.6573   55.7289 C   0  0  0  0  0  0  0  0  0  0  0  0
   34.3502   38.8715   54.6120 C   0  0  0  0  0  0  0  0  0  0  0  0
   34.9064   39.4799   53.3827 N   0  0  0  0  0  0  0  0  0  0  0  0
   35.1605   40.6708   53.3537 O   0  0  0  0  0  0  0  0  0  0  0  0
   35.1100   38.7897   52.4000 O   0  0  0  0  0  0  0  0  0  0  0  0
   34.0564   37.5238   54.6413 C   0  0  0  0  0  0  0  0  0  0  0  0
   33.5352   36.9510   55.7930 C   0  0  0  0  0  0  0  0  0  0  0  0
   33.0482   35.3038   56.1998 S   0  0  0  0  0  0  0  0  0  0  0  0
   32.5647   35.6331   57.7885 N   0  0  0  0  0  0  0  0  0  0  0  0
   32.0532   34.7006   58.6946 C   0  0  0  0  0  0  0  0  0  0  0  0
   32.2676   34.8641   60.0576 C   0  0  0  0  0  0  0  0  0  0  0  0
   31.7557   33.9436   60.9508 C   0  0  0  0  0  0  0  0  0  0  0  0
   31.0407   32.8536   60.4892 C   0  0  0  0  0  0  0  0  0  0  0  0
   30.8302   32.6847   59.1329 C   0  0  0  0  0  0  0  0  0  0  0  0
   31.3338   33.6046   58.2344 C   0  0  0  0  0  0  0  0  0  0  0  0
   32.7526   36.9302   58.0306 C   0  0  0  0  0  0  0  0  0  0  0  0
   32.4802   37.4253   59.1109 O   0  0  0  0  0  0  0  0  0  0  0  0
   33.2979   37.7258   56.9426 C   0  0  0  0  0  0  0  0  0  0  0  0
   33.0250   39.5263   58.8133 H   0  0  0  0  0  0  0  0  0  0  0  0
   33.6033   40.8564   57.9652 H   0  0  0  0  0  0  0  0  0  0  0  0
   34.3473   40.7124   55.6952 H   0  0  0  0  0  0  0  0  0  0  0  0
   34.2323   36.9140   53.7675 H   0  0  0  0  0  0  0  0  0  0  0  0
   32.8298   35.7127   60.4186 H   0  0  0  0  0  0  0  0  0  0  0  0
   31.9176   34.0728   62.0108 H   0  0  0  0  0  0  0  0  0  0  0  0
   30.6453   32.1329   61.1896 H   0  0  0  0  0  0  0  0  0  0  0  0
   30.2709   31.8325   58.7758 H   0  0  0  0  0  0  0  0  0  0  0  0
   31.1686   33.4723   57.1753 H   0  0  0  0  0  0  0  0  0  0  0  0
  1  2  1  0  0  0  0
  1 21  1  0  0  0  0
  1 22  1  0  0  0  0
  2 20  2  0  0  0  0
  2  3  1  0  0  0  0
  3  4  2  0  0  0  0
  3 23  1  0  0  0  0
  4  5  1  0  0  0  0
  4  8  1  0  0  0  0
  5  6  2  0  0  0  0
  5  7  2  0  0  0  0
  8  9  2  0  0  0  0
  8 24  1  0  0  0  0
  9 20  1  0  0  0  0
  9 10  1  0  0  0  0
 10 11  1  0  0  0  0
 11 12  1  0  0  0  0
 11 18  1  0  0  0  0
 12 17  2  0  0  0  0
 12 13  1  0  0  0  0
 13 14  2  0  0  0  0
 13 25  1  0  0  0  0
 14 15  1  0  0  0  0
 14 26  1  0  0  0  0
 15 16  2  0  0  0  0
 15 27  1  0  0  0  0
 16 17  1  0  0  0  0
 16 28  1  0  0  0  0
 17 29  1  0  0  0  0
 18 19  2  0  0  0  0
 18 20  1  0  0  0  0
M  END
$$$$
