ZINC000000045817      none
 OpenBabel11202420153D

 29 30  0  0  0  0  0  0  0  0999 V2000
   31.3312   32.7182   59.9312 N   0  0  0  0  0  0  0  0  0  0  0  0
   32.0963   33.6972   60.4535 C   0  0  0  0  0  0  0  0  0  0  0  0
   33.2933   33.5286   60.5847 O   0  0  0  0  0  0  0  0  0  0  0  0
   31.4816   34.9727   60.8657 C   0  0  0  0  0  0  0  0  0  0  0  0
   31.0043   35.1346   62.1669 C   0  0  0  0  0  0  0  0  0  0  0  0
   30.4295   36.3290   62.5466 C   0  0  0  0  0  0  0  0  0  0  0  0
   30.3266   37.3780   61.6462 C   0  0  0  0  0  0  0  0  0  0  0  0
   30.7863   37.2379   60.3540 C   0  0  0  0  0  0  0  0  0  0  0  0
   31.3715   36.0370   59.9478 C   0  0  0  0  0  0  0  0  0  0  0  0
   31.8337   35.8948   58.6721 N   0  0  0  0  0  0  0  0  0  0  0  0
   32.7686   36.6873   58.2248 C   0  0  0  0  0  0  0  0  0  0  0  0
   33.1977   36.5996   56.8204 C   0  0  0  0  0  0  0  0  0  0  0  0
   33.1372   35.3778   56.1417 C   0  0  0  0  0  0  0  0  0  0  0  0
   33.5354   35.3042   54.8241 C   0  0  0  0  0  0  0  0  0  0  0  0
   34.0052   36.4327   54.1740 C   0  0  0  0  0  0  0  0  0  0  0  0
   34.0748   37.6449   54.8387 C   0  0  0  0  0  0  0  0  0  0  0  0
   34.6662   39.0528   54.0131 Cl  0  0  0  0  0  0  0  0  0  0  0  0
   33.6739   37.7366   56.1580 C   0  0  0  0  0  0  0  0  0  0  0  0
   33.7602   39.2574   56.9908 Cl  0  0  0  0  0  0  0  0  0  0  0  0
   30.3762   32.8527   59.8264 H   0  0  0  0  0  0  0  0  0  0  0  0
   31.7354   31.8792   59.6601 H   0  0  0  0  0  0  0  0  0  0  0  0
   31.0847   34.3243   62.8763 H   0  0  0  0  0  0  0  0  0  0  0  0
   30.0610   36.4499   63.5547 H   0  0  0  0  0  0  0  0  0  0  0  0
   29.8788   38.3100   61.9579 H   0  0  0  0  0  0  0  0  0  0  0  0
   30.6978   38.0585   59.6575 H   0  0  0  0  0  0  0  0  0  0  0  0
   33.2276   37.4078   58.8856 H   0  0  0  0  0  0  0  0  0  0  0  0
   32.7752   34.4951   56.6477 H   0  0  0  0  0  0  0  0  0  0  0  0
   33.4848   34.3622   54.2983 H   0  0  0  0  0  0  0  0  0  0  0  0
   34.3196   36.3667   53.1429 H   0  0  0  0  0  0  0  0  0  0  0  0
  1  2  1  0  0  0  0
  1 20  1  0  0  0  0
  1 21  1  0  0  0  0
  2  3  2  0  0  0  0
  2  4  1  0  0  0  0
  4  9  2  0  0  0  0
  4  5  1  0  0  0  0
  5  6  2  0  0  0  0
  5 22  1  0  0  0  0
  6  7  1  0  0  0  0
  6 23  1  0  0  0  0
  7  8  2  0  0  0  0
  7 24  1  0  0  0  0
  8  9  1  0  0  0  0
  8 25  1  0  0  0  0
  9 10  1  0  0  0  0
 10 11  2  0  0  0  0
 11 12  1  0  0  0  0
 11 26  1  0  0  0  0
 12 18  2  0  0  0  0
 12 13  1  0  0  0  0
 13 14  2  0  0  0  0
 13 27  1  0  0  0  0
 14 15  1  0  0  0  0
 14 28  1  0  0  0  0
 15 16  2  0  0  0  0
 15 29  1  0  0  0  0
 16 17  1  0  0  0  0
 16 18  1  0  0  0  0
 18 19  1  0  0  0  0
M  END
$$$$
