ZINC000000049762      none
 OpenBabel11202420153D

 44 45  0  0  0  0  0  0  0  0999 V2000
   34.9848   38.7275   53.2870 C   0  0  0  0  0  0  0  0  0  0  0  0
   34.4413   37.8732   54.2954 O   0  0  0  0  0  0  0  0  0  0  0  0
   34.1375   38.5413   55.5215 C   0  0  0  0  0  0  0  0  0  0  0  0
   33.5737   37.5505   56.5072 C   0  0  0  0  0  0  0  0  0  0  0  0
   33.4145   36.2194   56.1623 C   0  0  0  0  0  0  0  0  0  0  0  0
   32.8944   35.3330   57.0880 C   0  0  0  0  0  0  0  0  0  0  0  0
   32.7220   33.8847   56.7092 C   0  0  0  0  0  0  0  0  0  0  0  0
   32.5464   35.7318   58.2961 N   0  0  0  0  0  0  0  0  0  0  0  0
   32.6771   36.9928   58.6789 C   0  0  0  0  0  0  0  0  0  0  0  0
   32.1952   37.4697   60.3051 S   0  0  0  0  0  0  0  0  0  0  0  0
   30.8688   36.2748   60.6030 C   0  0  0  0  0  0  0  0  0  0  0  0
   29.8462   36.8800   61.5298 C   0  0  0  0  0  0  0  0  0  0  0  0
   28.6973   37.0082   61.1642 O   0  0  0  0  0  0  0  0  0  0  0  0
   30.2421   37.3154   62.8787 C   0  0  0  0  0  0  0  0  0  0  0  0
   30.6914   38.6227   63.0919 C   0  0  0  0  0  0  0  0  0  0  0  0
   31.0609   39.0228   64.3583 C   0  0  0  0  0  0  0  0  0  0  0  0
   30.9882   38.1346   65.4176 C   0  0  0  0  0  0  0  0  0  0  0  0
   31.3999   38.5785   66.7976 C   0  0  0  0  0  0  0  0  0  0  0  0
   30.5446   36.8395   65.2149 C   0  0  0  0  0  0  0  0  0  0  0  0
   30.1713   36.4241   63.9539 C   0  0  0  0  0  0  0  0  0  0  0  0
   29.6890   35.0132   63.7353 C   0  0  0  0  0  0  0  0  0  0  0  0
   33.1935   37.9546   57.7918 C   0  0  0  0  0  0  0  0  0  0  0  0
   33.3320   39.3210   58.1973 C   0  0  0  0  0  0  0  0  0  0  0  0
   33.4419   40.4049   58.5191 N   0  0  0  0  0  0  0  0  0  0  0  0
   35.1882   38.1452   52.3884 H   0  0  0  0  0  0  0  0  0  0  0  0
   34.2691   39.5162   53.0547 H   0  0  0  0  0  0  0  0  0  0  0  0
   35.9116   39.1728   53.6490 H   0  0  0  0  0  0  0  0  0  0  0  0
   33.4043   39.3261   55.3355 H   0  0  0  0  0  0  0  0  0  0  0  0
   35.0466   38.9828   55.9297 H   0  0  0  0  0  0  0  0  0  0  0  0
   33.6945   35.8755   55.1777 H   0  0  0  0  0  0  0  0  0  0  0  0
   31.7318   33.7374   56.2778 H   0  0  0  0  0  0  0  0  0  0  0  0
   33.4816   33.6075   55.9783 H   0  0  0  0  0  0  0  0  0  0  0  0
   32.8277   33.2617   57.5973 H   0  0  0  0  0  0  0  0  0  0  0  0
   31.2849   35.3760   61.0582 H   0  0  0  0  0  0  0  0  0  0  0  0
   30.3935   36.0160   59.6568 H   0  0  0  0  0  0  0  0  0  0  0  0
   30.7492   39.3166   62.2663 H   0  0  0  0  0  0  0  0  0  0  0  0
   31.4086   40.0318   64.5245 H   0  0  0  0  0  0  0  0  0  0  0  0
   30.5363   38.9903   67.3196 H   0  0  0  0  0  0  0  0  0  0  0  0
   31.7873   37.7246   67.3535 H   0  0  0  0  0  0  0  0  0  0  0  0
   32.1741   39.3416   66.7180 H   0  0  0  0  0  0  0  0  0  0  0  0
   30.4905   36.1524   66.0464 H   0  0  0  0  0  0  0  0  0  0  0  0
   30.5161   34.3971   63.3822 H   0  0  0  0  0  0  0  0  0  0  0  0
   29.3100   34.6093   64.6740 H   0  0  0  0  0  0  0  0  0  0  0  0
   28.8923   35.0128   62.9914 H   0  0  0  0  0  0  0  0  0  0  0  0
  1  2  1  0  0  0  0
  1 25  1  0  0  0  0
  1 26  1  0  0  0  0
  1 27  1  0  0  0  0
  2  3  1  0  0  0  0
  3  4  1  0  0  0  0
  3 28  1  0  0  0  0
  3 29  1  0  0  0  0
  4 22  2  0  0  0  0
  4  5  1  0  0  0  0
  5  6  2  0  0  0  0
  5 30  1  0  0  0  0
  6  7  1  0  0  0  0
  6  8  1  0  0  0  0
  7 31  1  0  0  0  0
  7 32  1  0  0  0  0
  7 33  1  0  0  0  0
  8  9  2  0  0  0  0
  9 10  1  0  0  0  0
  9 22  1  0  0  0  0
 10 11  1  0  0  0  0
 11 12  1  0  0  0  0
 11 34  1  0  0  0  0
 11 35  1  0  0  0  0
 12 13  2  0  0  0  0
 12 14  1  0  0  0  0
 14 20  2  0  0  0  0
 14 15  1  0  0  0  0
 15 16  2  0  0  0  0
 15 36  1  0  0  0  0
 16 17  1  0  0  0  0
 16 37  1  0  0  0  0
 17 18  1  0  0  0  0
 17 19  2  0  0  0  0
 18 38  1  0  0  0  0
 18 39  1  0  0  0  0
 18 40  1  0  0  0  0
 19 20  1  0  0  0  0
 19 41  1  0  0  0  0
 20 21  1  0  0  0  0
 21 42  1  0  0  0  0
 21 43  1  0  0  0  0
 21 44  1  0  0  0  0
 22 23  1  0  0  0  0
 23 24  3  0  0  0  0
M  END
$$$$
