ZINC000000033683      none
 OpenBabel11202420153D

 39 39  0  0  1  0  0  0  0  0999 V2000
   30.4392   34.7996   63.8480 C   0  0  0  0  0  0  0  0  0  0  0  0
   31.1064   35.7655   63.8644 C   0  0  0  0  0  0  0  0  0  0  0  0
   31.9430   36.9765   63.8853 C   0  0  1  0  0  0  0  0  0  0  0  0
   31.1299   38.1486   64.4385 C   0  0  0  0  0  0  0  0  0  0  0  0
   33.1641   36.7376   64.7754 C   0  0  0  0  0  0  0  0  0  0  0  0
   32.7028   36.4120   66.1975 C   0  0  0  0  0  0  0  0  0  0  0  0
   32.3847   37.2883   62.5236 N   0  0  0  0  0  0  0  0  0  0  0  0
   31.2675   37.5942   61.3403 S   0  0  0  0  0  0  0  0  0  0  0  0
   31.1924   39.0076   61.2149 O   0  0  0  0  0  0  0  0  0  0  0  0
   30.1406   36.7788   61.6318 O   0  0  0  0  0  0  0  0  0  0  0  0
   31.9360   36.9950   59.8242 C   0  0  0  0  0  0  0  0  0  0  0  0
   32.3341   37.8849   58.8452 C   0  0  0  0  0  0  0  0  0  0  0  0
   32.8554   37.4131   57.6498 C   0  0  0  0  0  0  0  0  0  0  0  0
   33.2425   38.2888   56.6842 O   0  0  0  0  0  0  0  0  0  0  0  0
   33.7706   37.7330   55.4783 C   0  0  0  0  0  0  0  0  0  0  0  0
   32.9816   36.0478   57.4391 C   0  0  0  0  0  0  0  0  0  0  0  0
   32.5885   35.1584   58.4198 C   0  0  0  0  0  0  0  0  0  0  0  0
   32.0675   35.6303   59.6156 C   0  0  0  0  0  0  0  0  0  0  0  0
   31.6805   34.7546   60.5813 O   0  0  0  0  0  0  0  0  0  0  0  0
   31.8444   33.3634   60.2990 C   0  0  0  0  0  0  0  0  0  0  0  0
   29.8425   33.9358   63.8332 H   0  0  0  0  0  0  0  0  0  0  0  0
   30.2600   38.3187   63.8043 H   0  0  0  0  0  0  0  0  0  0  0  0
   30.8012   37.9167   65.4516 H   0  0  0  0  0  0  0  0  0  0  0  0
   31.7495   39.0453   64.4538 H   0  0  0  0  0  0  0  0  0  0  0  0
   33.7434   35.9027   64.3812 H   0  0  0  0  0  0  0  0  0  0  0  0
   33.7835   37.6345   64.7909 H   0  0  0  0  0  0  0  0  0  0  0  0
   33.5729   36.2419   66.8316 H   0  0  0  0  0  0  0  0  0  0  0  0
   32.1236   37.2468   66.5917 H   0  0  0  0  0  0  0  0  0  0  0  0
   32.0835   35.5152   66.1821 H   0  0  0  0  0  0  0  0  0  0  0  0
   33.3317   37.3155   62.3153 H   0  0  0  0  0  0  0  0  0  0  0  0
   32.2352   38.9477   59.0090 H   0  0  0  0  0  0  0  0  0  0  0  0
   34.0396   38.5382   54.7945 H   0  0  0  0  0  0  0  0  0  0  0  0
   34.6562   37.1408   55.7085 H   0  0  0  0  0  0  0  0  0  0  0  0
   33.0187   37.0963   55.0120 H   0  0  0  0  0  0  0  0  0  0  0  0
   33.3870   35.6804   56.5079 H   0  0  0  0  0  0  0  0  0  0  0  0
   32.6865   34.0954   58.2555 H   0  0  0  0  0  0  0  0  0  0  0  0
   31.4978   32.7766   61.1497 H   0  0  0  0  0  0  0  0  0  0  0  0
   31.2626   33.1009   59.4153 H   0  0  0  0  0  0  0  0  0  0  0  0
   32.8979   33.1514   60.1164 H   0  0  0  0  0  0  0  0  0  0  0  0
  1  2  3  0  0  0  0
  1 21  1  0  0  0  0
  3  2  1  6  0  0  0
  3  4  1  0  0  0  0
  3  5  1  0  0  0  0
  3  7  1  0  0  0  0
  4 22  1  0  0  0  0
  4 23  1  0  0  0  0
  4 24  1  0  0  0  0
  5  6  1  0  0  0  0
  5 25  1  0  0  0  0
  5 26  1  0  0  0  0
  6 27  1  0  0  0  0
  6 28  1  0  0  0  0
  6 29  1  0  0  0  0
  7  8  1  0  0  0  0
  7 30  1  0  0  0  0
  8  9  2  0  0  0  0
  8 10  2  0  0  0  0
  8 11  1  0  0  0  0
 11 18  2  0  0  0  0
 11 12  1  0  0  0  0
 12 13  2  0  0  0  0
 12 31  1  0  0  0  0
 13 14  1  0  0  0  0
 13 16  1  0  0  0  0
 14 15  1  0  0  0  0
 15 32  1  0  0  0  0
 15 33  1  0  0  0  0
 15 34  1  0  0  0  0
 16 17  2  0  0  0  0
 16 35  1  0  0  0  0
 17 18  1  0  0  0  0
 17 36  1  0  0  0  0
 18 19  1  0  0  0  0
 19 20  1  0  0  0  0
 20 37  1  0  0  0  0
 20 38  1  0  0  0  0
 20 39  1  0  0  0  0
M  END
$$$$
