ZINC000000000456      none
 OpenBabel11202420153D

 40 41  0  0  1  0  0  0  0  0999 V2000
   32.2411   38.0817   60.1056 C   0  0  0  0  0  0  0  0  0  0  0  0
   32.2205   36.5759   60.0478 C   0  0  0  0  0  0  0  0  0  0  0  0
   32.3068   35.9295   58.8303 C   0  0  0  0  0  0  0  0  0  0  0  0
   32.2934   34.5479   58.7767 C   0  0  0  0  0  0  0  0  0  0  0  0
   32.1830   33.8089   59.9405 C   0  0  0  0  0  0  0  0  0  0  0  0
   32.0906   34.4493   61.1606 C   0  0  0  0  0  0  0  0  0  0  0  0
   31.9694   33.6435   62.4283 C   0  0  0  0  0  0  0  0  0  0  0  0
   32.1091   35.8367   61.2182 C   0  0  0  0  0  0  0  0  0  0  0  0
   32.0162   36.4886   62.4528 N   0  0  0  0  0  0  0  0  0  0  0  0
   30.8085   36.8225   62.9494 C   0  0  0  0  0  0  0  0  0  0  0  0
   29.8023   36.5581   62.3259 O   0  0  0  0  0  0  0  0  0  0  0  0
   30.7084   37.5244   64.2790 C   0  0  1  0  0  0  0  0  0  0  0  0
   31.7082   37.6760   64.6860 H   0  0  0  0  0  0  0  0  0  0  0  0
   30.0240   38.8800   64.0898 C   0  0  0  0  0  0  0  0  0  0  0  0
   29.9064   39.5808   65.4461 C   0  0  0  0  0  0  0  0  0  0  0  0
   29.1246   38.6833   66.4093 C   0  0  0  0  0  0  0  0  0  0  0  0
   29.8351   37.3334   66.5314 C   0  0  0  0  0  0  0  0  0  0  0  0
   29.9216   36.7031   65.2079 N   0  0  0  0  0  0  0  0  0  0  0  0
   30.4732   35.3452   65.3067 C   0  0  0  0  0  0  0  0  0  0  0  0
   33.2698   38.4273   60.2060 H   0  0  0  0  0  0  0  0  0  0  0  0
   31.8095   38.4863   59.1901 H   0  0  0  0  0  0  0  0  0  0  0  0
   31.6586   38.4204   60.9625 H   0  0  0  0  0  0  0  0  0  0  0  0
   32.3886   36.5039   57.9192 H   0  0  0  0  0  0  0  0  0  0  0  0
   32.3648   34.0447   57.8238 H   0  0  0  0  0  0  0  0  0  0  0  0
   32.1687   32.7300   59.8951 H   0  0  0  0  0  0  0  0  0  0  0  0
   30.9270   33.3653   62.5835 H   0  0  0  0  0  0  0  0  0  0  0  0
   32.5774   32.7425   62.3455 H   0  0  0  0  0  0  0  0  0  0  0  0
   32.3161   34.2395   63.2724 H   0  0  0  0  0  0  0  0  0  0  0  0
   32.8209   36.7001   62.9514 H   0  0  0  0  0  0  0  0  0  0  0  0
   30.6162   39.4954   63.4125 H   0  0  0  0  0  0  0  0  0  0  0  0
   29.0292   38.7301   63.6702 H   0  0  0  0  0  0  0  0  0  0  0  0
   30.9025   39.7659   65.8481 H   0  0  0  0  0  0  0  0  0  0  0  0
   29.3817   40.5282   65.3224 H   0  0  0  0  0  0  0  0  0  0  0  0
   29.0743   39.1580   67.3893 H   0  0  0  0  0  0  0  0  0  0  0  0
   28.1156   38.5302   66.0263 H   0  0  0  0  0  0  0  0  0  0  0  0
   30.8390   37.4859   66.9275 H   0  0  0  0  0  0  0  0  0  0  0  0
   29.2731   36.6868   67.2053 H   0  0  0  0  0  0  0  0  0  0  0  0
   31.5321   35.4006   65.5591 H   0  0  0  0  0  0  0  0  0  0  0  0
   29.9431   34.7933   66.0830 H   0  0  0  0  0  0  0  0  0  0  0  0
   30.3536   34.8341   64.3515 H   0  0  0  0  0  0  0  0  0  0  0  0
  1  2  1  0  0  0  0
  1 20  1  0  0  0  0
  1 21  1  0  0  0  0
  1 22  1  0  0  0  0
  2  8  2  0  0  0  0
  2  3  1  0  0  0  0
  3  4  2  0  0  0  0
  3 23  1  0  0  0  0
  4  5  1  0  0  0  0
  4 24  1  0  0  0  0
  5  6  2  0  0  0  0
  5 25  1  0  0  0  0
  6  7  1  0  0  0  0
  6  8  1  0  0  0  0
  7 26  1  0  0  0  0
  7 27  1  0  0  0  0
  7 28  1  0  0  0  0
  8  9  1  0  0  0  0
  9 10  1  0  0  0  0
  9 29  1  0  0  0  0
 10 11  2  0  0  0  0
 10 12  1  0  0  0  0
 12 13  1  1  0  0  0
 12 18  1  0  0  0  0
 12 14  1  0  0  0  0
 14 15  1  0  0  0  0
 14 30  1  0  0  0  0
 14 31  1  0  0  0  0
 15 16  1  0  0  0  0
 15 32  1  0  0  0  0
 15 33  1  0  0  0  0
 16 17  1  0  0  0  0
 16 34  1  0  0  0  0
 16 35  1  0  0  0  0
 17 18  1  0  0  0  0
 17 36  1  0  0  0  0
 17 37  1  0  0  0  0
 18 19  1  0  0  0  0
 19 38  1  0  0  0  0
 19 39  1  0  0  0  0
 19 40  1  0  0  0  0
M  END
$$$$
