ZINC000000009394      none
 OpenBabel11202420153D

 38 40  0  0  0  0  0  0  0  0999 V2000
   28.5062   37.2414   61.8885 C   0  0  0  0  0  0  0  0  0  0  0  0
   29.1287   36.0939   62.6415 C   0  0  0  0  0  0  0  0  0  0  0  0
   28.9034   35.7958   63.9319 C   0  0  0  0  0  0  0  0  0  0  0  0
   29.7162   34.6092   64.2305 C   0  0  0  0  0  0  0  0  0  0  0  0
   29.8106   33.9030   65.5100 C   0  0  0  0  0  0  0  0  0  0  0  0
   29.1719   34.2916   66.4659 O   0  0  0  0  0  0  0  0  0  0  0  0
   30.3693   34.2926   63.0541 C   0  0  0  0  0  0  0  0  0  0  0  0
   31.3212   33.1416   62.8535 C   0  0  0  0  0  0  0  0  0  0  0  0
   30.0108   35.1919   62.1205 N   0  0  0  0  0  0  0  0  0  0  0  0
   30.4942   35.1987   60.7377 C   0  0  0  0  0  0  0  0  0  0  0  0
   31.7613   36.0512   60.6445 C   0  0  0  0  0  0  0  0  0  0  0  0
   32.2586   36.0582   59.2219 C   0  0  0  0  0  0  0  0  0  0  0  0
   32.3609   34.9968   58.4066 C   0  0  0  0  0  0  0  0  0  0  0  0
   32.8520   35.3882   57.1908 N   0  0  0  0  0  0  0  0  0  0  0  0
   33.0126   34.7975   56.4384 H   0  0  0  0  0  0  0  0  0  0  0  0
   33.0835   36.7454   57.1945 C   0  0  0  0  0  0  0  0  0  0  0  0
   33.5681   37.6369   56.2426 C   0  0  0  0  0  0  0  0  0  0  0  0
   33.6879   38.9731   56.5552 C   0  0  0  0  0  0  0  0  0  0  0  0
   33.3298   39.4412   57.8122 C   0  0  0  0  0  0  0  0  0  0  0  0
   32.8518   38.5833   58.7620 C   0  0  0  0  0  0  0  0  0  0  0  0
   32.7161   37.2256   58.4646 C   0  0  0  0  0  0  0  0  0  0  0  0
   27.5734   36.9121   61.4307 H   0  0  0  0  0  0  0  0  0  0  0  0
   28.3031   38.0609   62.5780 H   0  0  0  0  0  0  0  0  0  0  0  0
   29.1917   37.5812   61.1122 H   0  0  0  0  0  0  0  0  0  0  0  0
   28.2537   36.3238   64.6143 H   0  0  0  0  0  0  0  0  0  0  0  0
   30.4485   33.0365   65.6027 H   0  0  0  0  0  0  0  0  0  0  0  0
   32.3363   33.4656   63.0828 H   0  0  0  0  0  0  0  0  0  0  0  0
   31.0435   32.3210   63.5149 H   0  0  0  0  0  0  0  0  0  0  0  0
   31.2721   32.8059   61.8177 H   0  0  0  0  0  0  0  0  0  0  0  0
   29.7265   35.6166   60.0864 H   0  0  0  0  0  0  0  0  0  0  0  0
   30.7190   34.1786   60.4263 H   0  0  0  0  0  0  0  0  0  0  0  0
   32.5290   35.6333   61.2958 H   0  0  0  0  0  0  0  0  0  0  0  0
   31.5367   37.0714   60.9559 H   0  0  0  0  0  0  0  0  0  0  0  0
   32.0949   33.9840   58.6709 H   0  0  0  0  0  0  0  0  0  0  0  0
   33.8497   37.2825   55.2620 H   0  0  0  0  0  0  0  0  0  0  0  0
   34.0646   39.6636   55.8150 H   0  0  0  0  0  0  0  0  0  0  0  0
   33.4303   40.4918   58.0412 H   0  0  0  0  0  0  0  0  0  0  0  0
   32.5748   38.9546   59.7376 H   0  0  0  0  0  0  0  0  0  0  0  0
  1  2  1  0  0  0  0
  1 22  1  0  0  0  0
  1 23  1  0  0  0  0
  1 24  1  0  0  0  0
  2  9  1  0  0  0  0
  2  3  2  0  0  0  0
  3  4  1  0  0  0  0
  3 25  1  0  0  0  0
  4  5  1  0  0  0  0
  4  7  2  0  0  0  0
  5  6  2  0  0  0  0
  5 26  1  0  0  0  0
  7  8  1  0  0  0  0
  7  9  1  0  0  0  0
  8 27  1  0  0  0  0
  8 28  1  0  0  0  0
  8 29  1  0  0  0  0
  9 10  1  0  0  0  0
 10 11  1  0  0  0  0
 10 30  1  0  0  0  0
 10 31  1  0  0  0  0
 11 12  1  0  0  0  0
 11 32  1  0  0  0  0
 11 33  1  0  0  0  0
 12 21  1  0  0  0  0
 12 13  2  0  0  0  0
 13 14  1  0  0  0  0
 13 34  1  0  0  0  0
 14 15  1  0  0  0  0
 14 16  1  0  0  0  0
 16 21  2  0  0  0  0
 16 17  1  0  0  0  0
 17 18  2  0  0  0  0
 17 35  1  0  0  0  0
 18 19  1  0  0  0  0
 18 36  1  0  0  0  0
 19 20  2  0  0  0  0
 19 37  1  0  0  0  0
 20 21  1  0  0  0  0
 20 38  1  0  0  0  0
M  END
$$$$
