ZINC000000036163      none
 OpenBabel11202420153D

 34 36  0  0  0  0  0  0  0  0999 V2000
   29.4516   36.1804   60.6342 C   0  0  0  0  0  0  0  0  0  0  0  0
   30.4301   37.1989   60.2451 N   0  0  0  0  0  0  0  0  0  0  0  0
   30.9508   37.4357   58.9609 N   0  0  0  0  0  0  0  0  0  0  0  0
   31.7771   38.4193   59.0686 N   0  0  0  0  0  0  0  0  0  0  0  0
   31.8308   38.8260   60.2855 N   0  0  0  0  0  0  0  0  0  0  0  0
   31.0268   38.1138   61.0451 C   0  0  0  0  0  0  0  0  0  0  0  0
   30.7746   38.3126   62.7776 S   0  0  0  0  0  0  0  0  0  0  0  0
   32.0543   37.2003   63.4113 C   0  0  0  0  0  0  0  0  0  0  0  0
   32.3665   37.5570   64.8417 C   0  0  0  0  0  0  0  0  0  0  0  0
   32.2311   38.8632   65.2737 C   0  0  0  0  0  0  0  0  0  0  0  0
   32.5129   39.1895   66.5871 C   0  0  0  0  0  0  0  0  0  0  0  0
   32.9395   38.2122   67.4659 C   0  0  0  0  0  0  0  0  0  0  0  0
   33.0805   36.9065   67.0325 C   0  0  0  0  0  0  0  0  0  0  0  0
   32.7937   36.5792   65.7205 C   0  0  0  0  0  0  0  0  0  0  0  0
   31.5615   35.7778   63.3443 C   0  0  0  0  0  0  0  0  0  0  0  0
   30.4240   35.4071   64.0368 C   0  0  0  0  0  0  0  0  0  0  0  0
   29.9693   34.1032   63.9715 C   0  0  0  0  0  0  0  0  0  0  0  0
   30.6579   33.1677   63.2221 C   0  0  0  0  0  0  0  0  0  0  0  0
   31.7983   33.5373   62.5339 C   0  0  0  0  0  0  0  0  0  0  0  0
   32.2501   34.8423   62.5949 C   0  0  0  0  0  0  0  0  0  0  0  0
   29.9725   35.2660   60.9186 H   0  0  0  0  0  0  0  0  0  0  0  0
   28.8663   36.5430   61.4793 H   0  0  0  0  0  0  0  0  0  0  0  0
   28.7881   35.9743   59.7944 H   0  0  0  0  0  0  0  0  0  0  0  0
   32.9555   37.3016   62.8065 H   0  0  0  0  0  0  0  0  0  0  0  0
   31.9017   39.6279   64.5860 H   0  0  0  0  0  0  0  0  0  0  0  0
   32.4036   40.2092   66.9256 H   0  0  0  0  0  0  0  0  0  0  0  0
   33.1644   38.4674   68.4909 H   0  0  0  0  0  0  0  0  0  0  0  0
   33.4146   36.1425   67.7190 H   0  0  0  0  0  0  0  0  0  0  0  0
   32.9037   35.5595   65.3818 H   0  0  0  0  0  0  0  0  0  0  0  0
   29.8886   36.1369   64.6259 H   0  0  0  0  0  0  0  0  0  0  0  0
   29.0785   33.8144   64.5096 H   0  0  0  0  0  0  0  0  0  0  0  0
   30.3051   32.1481   63.1747 H   0  0  0  0  0  0  0  0  0  0  0  0
   32.3366   32.8063   61.9486 H   0  0  0  0  0  0  0  0  0  0  0  0
   33.1413   35.1309   62.0574 H   0  0  0  0  0  0  0  0  0  0  0  0
  1  2  1  0  0  0  0
  1 21  1  0  0  0  0
  1 22  1  0  0  0  0
  1 23  1  0  0  0  0
  2  6  1  0  0  0  0
  2  3  1  0  0  0  0
  3  4  2  0  0  0  0
  4  5  1  0  0  0  0
  5  6  2  0  0  0  0
  6  7  1  0  0  0  0
  7  8  1  0  0  0  0
  8  9  1  0  0  0  0
  8 15  1  0  0  0  0
  8 24  1  0  0  0  0
  9 14  2  0  0  0  0
  9 10  1  0  0  0  0
 10 11  2  0  0  0  0
 10 25  1  0  0  0  0
 11 12  1  0  0  0  0
 11 26  1  0  0  0  0
 12 13  2  0  0  0  0
 12 27  1  0  0  0  0
 13 14  1  0  0  0  0
 13 28  1  0  0  0  0
 14 29  1  0  0  0  0
 15 20  2  0  0  0  0
 15 16  1  0  0  0  0
 16 17  2  0  0  0  0
 16 30  1  0  0  0  0
 17 18  1  0  0  0  0
 17 31  1  0  0  0  0
 18 19  2  0  0  0  0
 18 32  1  0  0  0  0
 19 20  1  0  0  0  0
 19 33  1  0  0  0  0
 20 34  1  0  0  0  0
M  END
$$$$
