ZINC000000036040      none
 OpenBabel11202420153D

 25 26  0  0  0  0  0  0  0  0999 V2000
   31.6846   38.2372   62.3124 O   0  0  0  0  0  0  0  0  0  0  0  0
   31.4219   37.0686   62.1039 C   0  0  0  0  0  0  0  0  0  0  0  0
   31.6410   36.5354   60.8857 N   0  0  0  0  0  0  0  0  0  0  0  0
   32.1689   37.3236   59.8648 C   0  0  0  0  0  0  0  0  0  0  0  0
   32.3872   36.7684   58.6088 C   0  0  0  0  0  0  0  0  0  0  0  0
   32.9112   37.5618   57.6040 C   0  0  0  0  0  0  0  0  0  0  0  0
   33.2004   38.8898   57.8912 C   0  0  0  0  0  0  0  0  0  0  0  0
   33.9188   40.0215   56.5573 Br  0  0  0  0  0  0  0  0  0  0  0  0
   32.9579   39.3750   59.1619 C   0  0  0  0  0  0  0  0  0  0  0  0
   32.4527   38.5951   60.0985 N   0  0  0  0  0  0  0  0  0  0  0  0
   30.8628   36.2337   63.1853 C   0  0  0  0  0  0  0  0  0  0  0  0
   29.6102   35.6338   63.0316 C   0  0  0  0  0  0  0  0  0  0  0  0
   29.0925   34.8549   64.0459 C   0  0  0  0  0  0  0  0  0  0  0  0
   27.8816   34.2741   63.8992 F   0  0  0  0  0  0  0  0  0  0  0  0
   29.8145   34.6664   65.2177 C   0  0  0  0  0  0  0  0  0  0  0  0
   29.3031   33.9024   66.2076 F   0  0  0  0  0  0  0  0  0  0  0  0
   31.0587   35.2550   65.3728 C   0  0  0  0  0  0  0  0  0  0  0  0
   31.5841   36.0406   64.3667 C   0  0  0  0  0  0  0  0  0  0  0  0
   33.1413   36.7817   64.5656 Cl  0  0  0  0  0  0  0  0  0  0  0  0
   31.4315   35.6031   60.7194 H   0  0  0  0  0  0  0  0  0  0  0  0
   32.1511   35.7314   58.4203 H   0  0  0  0  0  0  0  0  0  0  0  0
   33.0911   37.1581   56.6186 H   0  0  0  0  0  0  0  0  0  0  0  0
   33.1807   40.4068   59.3901 H   0  0  0  0  0  0  0  0  0  0  0  0
   29.0486   35.7793   62.1207 H   0  0  0  0  0  0  0  0  0  0  0  0
   31.6173   35.1019   66.2845 H   0  0  0  0  0  0  0  0  0  0  0  0
  1  2  2  0  0  0  0
  2  3  1  0  0  0  0
  2 11  1  0  0  0  0
  3  4  1  0  0  0  0
  3 20  1  0  0  0  0
  4 10  2  0  0  0  0
  4  5  1  0  0  0  0
  5  6  2  0  0  0  0
  5 21  1  0  0  0  0
  6  7  1  0  0  0  0
  6 22  1  0  0  0  0
  7  8  1  0  0  0  0
  7  9  2  0  0  0  0
  9 10  1  0  0  0  0
  9 23  1  0  0  0  0
 11 18  2  0  0  0  0
 11 12  1  0  0  0  0
 12 13  2  0  0  0  0
 12 24  1  0  0  0  0
 13 14  1  0  0  0  0
 13 15  1  0  0  0  0
 15 16  1  0  0  0  0
 15 17  2  0  0  0  0
 17 18  1  0  0  0  0
 17 25  1  0  0  0  0
 18 19  1  0  0  0  0
M  END
$$$$
