ZINC000000028235      none
 OpenBabel11202420163D

 26 26  0  0  0  0  0  0  0  0999 V2000
   34.4929   32.1319   54.0592 C   0  0  0  0  0  0  0  0  0  0  0  0
   33.2748   33.0566   54.0162 C   0  0  0  0  0  0  0  0  0  0  0  0
   32.5488   32.9594   55.2701 O   0  0  0  0  0  0  0  0  0  0  0  0
   32.9053   33.8122   56.2514 C   0  0  0  0  0  0  0  0  0  0  0  0
   33.7986   34.6150   56.0641 O   0  0  0  0  0  0  0  0  0  0  0  0
   32.2094   33.7750   57.5468 C   0  0  0  0  0  0  0  0  0  0  0  0
   31.1532   32.8330   57.7654 C   0  0  0  0  0  0  0  0  0  0  0  0
   30.3153   32.0859   57.9389 N   0  0  0  0  0  0  0  0  0  0  0  0
   32.5734   34.6457   58.5487 C   0  0  0  0  0  0  0  0  0  0  0  0
   31.9992   34.5006   59.8909 C   0  0  0  0  0  0  0  0  0  0  0  0
   31.2622   35.5478   60.4587 C   0  0  0  0  0  0  0  0  0  0  0  0
   30.7223   35.4011   61.7183 C   0  0  0  0  0  0  0  0  0  0  0  0
   30.9155   34.2271   62.4262 C   0  0  0  0  0  0  0  0  0  0  0  0
   31.6471   33.1890   61.8749 C   0  0  0  0  0  0  0  0  0  0  0  0
   32.1897   33.3164   60.6145 C   0  0  0  0  0  0  0  0  0  0  0  0
   34.1635   31.1038   54.2095 H   0  0  0  0  0  0  0  0  0  0  0  0
   35.0378   32.2049   53.1180 H   0  0  0  0  0  0  0  0  0  0  0  0
   35.1452   32.4282   54.8806 H   0  0  0  0  0  0  0  0  0  0  0  0
   32.6223   32.7603   53.1948 H   0  0  0  0  0  0  0  0  0  0  0  0
   33.6041   34.0847   53.8660 H   0  0  0  0  0  0  0  0  0  0  0  0
   33.2817   35.4355   58.3468 H   0  0  0  0  0  0  0  0  0  0  0  0
   31.1142   36.4660   59.9096 H   0  0  0  0  0  0  0  0  0  0  0  0
   30.1503   36.2058   62.1559 H   0  0  0  0  0  0  0  0  0  0  0  0
   30.4934   34.1206   63.4146 H   0  0  0  0  0  0  0  0  0  0  0  0
   31.7926   32.2766   62.4341 H   0  0  0  0  0  0  0  0  0  0  0  0
   32.7599   32.5055   60.1857 H   0  0  0  0  0  0  0  0  0  0  0  0
  1  2  1  0  0  0  0
  1 16  1  0  0  0  0
  1 17  1  0  0  0  0
  1 18  1  0  0  0  0
  2  3  1  0  0  0  0
  2 19  1  0  0  0  0
  2 20  1  0  0  0  0
  3  4  1  0  0  0  0
  4  5  2  0  0  0  0
  4  6  1  0  0  0  0
  6  7  1  0  0  0  0
  6  9  2  0  0  0  0
  7  8  3  0  0  0  0
  9 10  1  0  0  0  0
  9 21  1  0  0  0  0
 10 15  2  0  0  0  0
 10 11  1  0  0  0  0
 11 12  2  0  0  0  0
 11 22  1  0  0  0  0
 12 13  1  0  0  0  0
 12 23  1  0  0  0  0
 13 14  2  0  0  0  0
 13 24  1  0  0  0  0
 14 15  1  0  0  0  0
 14 25  1  0  0  0  0
 15 26  1  0  0  0  0
M  END
$$$$
