ZINC000000037506      none
 OpenBabel11202420153D

 36 38  0  0  0  0  0  0  0  0999 V2000
   32.1545   38.5742   58.1057 C   0  0  0  0  0  0  0  0  0  0  0  0
   32.4766   37.1050   58.0140 C   0  0  0  0  0  0  0  0  0  0  0  0
   33.0296   36.4898   56.9526 C   0  0  0  0  0  0  0  0  0  0  0  0
   33.1584   35.0738   57.3104 C   0  0  0  0  0  0  0  0  0  0  0  0
   33.7104   33.9969   56.4710 C   0  0  0  0  0  0  0  0  0  0  0  0
   33.6081   34.0643   55.1781 N   0  0  0  0  0  0  0  0  0  0  0  0
   34.1332   33.0398   54.3796 N   0  0  0  0  0  0  0  0  0  0  0  0
   33.6731   32.6266   53.1654 C   0  0  0  0  0  0  0  0  0  0  0  0
   34.4495   31.6539   52.7683 N   0  0  0  0  0  0  0  0  0  0  0  0
   35.3537   31.4274   53.6535 N   0  0  0  0  0  0  0  0  0  0  0  0
   35.2056   32.2475   54.6595 C   0  0  0  0  0  0  0  0  0  0  0  0
   32.6582   34.9522   58.5766 C   0  0  0  0  0  0  0  0  0  0  0  0
   32.5719   33.6759   59.3732 C   0  0  0  0  0  0  0  0  0  0  0  0
   32.2555   36.1806   58.9948 N   0  0  0  0  0  0  0  0  0  0  0  0
   31.6901   36.4580   60.2484 C   0  0  0  0  0  0  0  0  0  0  0  0
   30.5090   35.8360   60.6303 C   0  0  0  0  0  0  0  0  0  0  0  0
   29.9554   36.1057   61.8661 C   0  0  0  0  0  0  0  0  0  0  0  0
   30.5735   37.0059   62.7218 C   0  0  0  0  0  0  0  0  0  0  0  0
   30.0250   37.2754   63.9362 O   0  0  0  0  0  0  0  0  0  0  0  0
   31.7509   37.6317   62.3384 C   0  0  0  0  0  0  0  0  0  0  0  0
   32.3082   37.3587   61.1050 C   0  0  0  0  0  0  0  0  0  0  0  0
   31.1403   38.7469   57.7457 H   0  0  0  0  0  0  0  0  0  0  0  0
   32.2318   38.8990   59.1433 H   0  0  0  0  0  0  0  0  0  0  0  0
   32.8582   39.1393   57.4946 H   0  0  0  0  0  0  0  0  0  0  0  0
   33.3214   36.9493   56.0198 H   0  0  0  0  0  0  0  0  0  0  0  0
   34.2001   33.1511   56.9306 H   0  0  0  0  0  0  0  0  0  0  0  0
   32.8260   33.0295   52.6302 H   0  0  0  0  0  0  0  0  0  0  0  0
   35.8187   32.2891   55.5478 H   0  0  0  0  0  0  0  0  0  0  0  0
   33.4863   33.5465   59.9523 H   0  0  0  0  0  0  0  0  0  0  0  0
   31.7181   33.7265   60.0489 H   0  0  0  0  0  0  0  0  0  0  0  0
   32.4489   32.8318   58.6947 H   0  0  0  0  0  0  0  0  0  0  0  0
   30.0257   35.1383   59.9625 H   0  0  0  0  0  0  0  0  0  0  0  0
   29.0389   35.6189   62.1650 H   0  0  0  0  0  0  0  0  0  0  0  0
   30.5264   37.9141   64.4613 H   0  0  0  0  0  0  0  0  0  0  0  0
   32.2315   38.3327   63.0049 H   0  0  0  0  0  0  0  0  0  0  0  0
   33.2249   37.8456   60.8069 H   0  0  0  0  0  0  0  0  0  0  0  0
  1  2  1  0  0  0  0
  1 22  1  0  0  0  0
  1 23  1  0  0  0  0
  1 24  1  0  0  0  0
  2 14  1  0  0  0  0
  2  3  2  0  0  0  0
  3  4  1  0  0  0  0
  3 25  1  0  0  0  0
  4  5  1  0  0  0  0
  4 12  2  0  0  0  0
  5  6  2  0  0  0  0
  5 26  1  0  0  0  0
  6  7  1  0  0  0  0
  7 11  1  0  0  0  0
  7  8  1  0  0  0  0
  8  9  2  0  0  0  0
  8 27  1  0  0  0  0
  9 10  1  0  0  0  0
 10 11  2  0  0  0  0
 11 28  1  0  0  0  0
 12 13  1  0  0  0  0
 12 14  1  0  0  0  0
 13 29  1  0  0  0  0
 13 30  1  0  0  0  0
 13 31  1  0  0  0  0
 14 15  1  0  0  0  0
 15 21  2  0  0  0  0
 15 16  1  0  0  0  0
 16 17  2  0  0  0  0
 16 32  1  0  0  0  0
 17 18  1  0  0  0  0
 17 33  1  0  0  0  0
 18 19  1  0  0  0  0
 18 20  2  0  0  0  0
 19 34  1  0  0  0  0
 20 21  1  0  0  0  0
 20 35  1  0  0  0  0
 21 36  1  0  0  0  0
M  END
$$$$
