ZINC000000033027      none
 OpenBabel11202420153D

 30 31  0  0  0  0  0  0  0  0999 V2000
   33.3393   34.2991   52.5656 C   0  0  0  0  0  0  0  0  0  0  0  0
   33.8280   35.5280   53.2882 C   0  0  0  0  0  0  0  0  0  0  0  0
   34.0667   36.7382   52.7321 C   0  0  0  0  0  0  0  0  0  0  0  0
   34.5114   37.5964   53.7432 C   0  0  0  0  0  0  0  0  0  0  0  0
   34.8910   39.0167   53.5716 N   0  0  0  0  0  0  0  0  0  0  0  0
   34.8292   39.5349   52.4711 O   0  0  0  0  0  0  0  0  0  0  0  0
   35.2653   39.6673   54.5309 O   0  0  0  0  0  0  0  0  0  0  0  0
   34.5332   36.9268   54.8671 N   0  0  0  0  0  0  0  0  0  0  0  0
   34.1025   35.6196   54.6062 N   0  0  0  0  0  0  0  0  0  0  0  0
   33.9780   34.5408   55.5895 C   0  0  0  0  0  0  0  0  0  0  0  0
   33.2999   35.0661   56.8286 C   0  0  0  0  0  0  0  0  0  0  0  0
   32.6223   34.3254   57.5092 O   0  0  0  0  0  0  0  0  0  0  0  0
   33.4465   36.3588   57.1805 N   0  0  0  0  0  0  0  0  0  0  0  0
   32.8190   36.8448   58.3269 C   0  0  0  0  0  0  0  0  0  0  0  0
   32.9749   38.1795   58.6839 C   0  0  0  0  0  0  0  0  0  0  0  0
   32.3473   38.6490   59.8240 C   0  0  0  0  0  0  0  0  0  0  0  0
   31.5817   37.7630   60.5714 C   0  0  0  0  0  0  0  0  0  0  0  0
   30.7004   38.3485   62.1387 Br  0  0  0  0  0  0  0  0  0  0  0  0
   31.4705   36.4497   60.1572 C   0  0  0  0  0  0  0  0  0  0  0  0
   32.0810   36.0312   59.0650 N   0  0  0  0  0  0  0  0  0  0  0  0
   32.2495   34.2817   52.5746 H   0  0  0  0  0  0  0  0  0  0  0  0
   33.6941   34.3183   51.5352 H   0  0  0  0  0  0  0  0  0  0  0  0
   33.7210   33.4084   53.0649 H   0  0  0  0  0  0  0  0  0  0  0  0
   33.9407   36.9951   51.6907 H   0  0  0  0  0  0  0  0  0  0  0  0
   34.9695   34.1687   55.8480 H   0  0  0  0  0  0  0  0  0  0  0  0
   33.3847   33.7302   55.1665 H   0  0  0  0  0  0  0  0  0  0  0  0
   33.9886   36.9511   56.6361 H   0  0  0  0  0  0  0  0  0  0  0  0
   33.5781   38.8407   58.0796 H   0  0  0  0  0  0  0  0  0  0  0  0
   32.4506   39.6806   60.1262 H   0  0  0  0  0  0  0  0  0  0  0  0
   30.8768   35.7569   60.7349 H   0  0  0  0  0  0  0  0  0  0  0  0
  1  2  1  0  0  0  0
  1 21  1  0  0  0  0
  1 22  1  0  0  0  0
  1 23  1  0  0  0  0
  2  9  1  0  0  0  0
  2  3  2  0  0  0  0
  3  4  1  0  0  0  0
  3 24  1  0  0  0  0
  4  5  1  0  0  0  0
  4  8  2  0  0  0  0
  5  6  2  0  0  0  0
  5  7  2  0  0  0  0
  8  9  1  0  0  0  0
  9 10  1  0  0  0  0
 10 11  1  0  0  0  0
 10 25  1  0  0  0  0
 10 26  1  0  0  0  0
 11 12  2  0  0  0  0
 11 13  1  0  0  0  0
 13 14  1  0  0  0  0
 13 27  1  0  0  0  0
 14 20  2  0  0  0  0
 14 15  1  0  0  0  0
 15 16  2  0  0  0  0
 15 28  1  0  0  0  0
 16 17  1  0  0  0  0
 16 29  1  0  0  0  0
 17 18  1  0  0  0  0
 17 19  2  0  0  0  0
 19 20  1  0  0  0  0
 19 30  1  0  0  0  0
M  END
$$$$
