ZINC000000041027      none
 OpenBabel11202420153D

 34 35  0  0  0  0  0  0  0  0999 V2000
   33.3757   36.7329   56.4052 C   0  0  0  0  0  0  0  0  0  0  0  0
   32.9114   35.8334   57.4139 O   0  0  0  0  0  0  0  0  0  0  0  0
   32.4252   36.3853   58.5559 C   0  0  0  0  0  0  0  0  0  0  0  0
   32.3963   37.7662   58.6995 C   0  0  0  0  0  0  0  0  0  0  0  0
   31.9094   38.3320   59.8571 C   0  0  0  0  0  0  0  0  0  0  0  0
   31.4320   37.5139   60.8884 C   0  0  0  0  0  0  0  0  0  0  0  0
   30.9075   38.1139   62.1216 C   0  0  0  0  0  0  0  0  0  0  0  0
   31.4866   37.8278   63.3149 C   0  0  0  0  0  0  0  0  0  0  0  0
   32.7373   37.0838   63.5533 C   0  0  0  0  0  0  0  0  0  0  0  0
   33.4701   36.5941   62.7088 O   0  0  0  0  0  0  0  0  0  0  0  0
   32.9085   37.0519   64.8822 N   0  0  0  0  0  0  0  0  0  0  0  0
   31.9246   37.6799   65.4885 C   0  0  0  0  0  0  0  0  0  0  0  0
   31.8161   37.8186   66.8459 N   0  0  0  0  0  0  0  0  0  0  0  0
   31.0319   38.1789   64.5913 N   0  0  0  0  0  0  0  0  0  0  0  0
   29.8189   38.9390   64.9030 C   0  0  0  0  0  0  0  0  0  0  0  0
   31.4612   36.1215   60.7421 C   0  0  0  0  0  0  0  0  0  0  0  0
   31.9561   35.5634   59.5800 C   0  0  0  0  0  0  0  0  0  0  0  0
   31.9857   34.2117   59.4343 O   0  0  0  0  0  0  0  0  0  0  0  0
   30.8338   33.5962   58.8543 C   0  0  0  0  0  0  0  0  0  0  0  0
   32.5573   37.3811   56.0918 H   0  0  0  0  0  0  0  0  0  0  0  0
   34.1874   37.3402   56.8057 H   0  0  0  0  0  0  0  0  0  0  0  0
   33.7366   36.1635   55.5487 H   0  0  0  0  0  0  0  0  0  0  0  0
   32.7609   38.3983   57.9032 H   0  0  0  0  0  0  0  0  0  0  0  0
   31.8922   39.4062   59.9677 H   0  0  0  0  0  0  0  0  0  0  0  0
   30.0607   38.7830   62.0789 H   0  0  0  0  0  0  0  0  0  0  0  0
   32.4933   37.4397   67.4278 H   0  0  0  0  0  0  0  0  0  0  0  0
   31.0620   38.2960   67.2258 H   0  0  0  0  0  0  0  0  0  0  0  0
   28.9824   38.2519   65.0304 H   0  0  0  0  0  0  0  0  0  0  0  0
   29.9698   39.5024   65.8239 H   0  0  0  0  0  0  0  0  0  0  0  0
   29.6021   39.6281   64.0868 H   0  0  0  0  0  0  0  0  0  0  0  0
   31.0974   35.4858   61.5358 H   0  0  0  0  0  0  0  0  0  0  0  0
   30.6742   33.9954   57.8527 H   0  0  0  0  0  0  0  0  0  0  0  0
   30.9881   32.5189   58.7957 H   0  0  0  0  0  0  0  0  0  0  0  0
   29.9604   33.8051   59.4722 H   0  0  0  0  0  0  0  0  0  0  0  0
  1  2  1  0  0  0  0
  1 20  1  0  0  0  0
  1 21  1  0  0  0  0
  1 22  1  0  0  0  0
  2  3  1  0  0  0  0
  3 17  2  0  0  0  0
  3  4  1  0  0  0  0
  4  5  2  0  0  0  0
  4 23  1  0  0  0  0
  5  6  1  0  0  0  0
  5 24  1  0  0  0  0
  6  7  1  0  0  0  0
  6 16  2  0  0  0  0
  7  8  2  0  0  0  0
  7 25  1  0  0  0  0
  8 14  1  0  0  0  0
  8  9  1  0  0  0  0
  9 10  2  0  0  0  0
  9 11  1  0  0  0  0
 11 12  2  0  0  0  0
 12 13  1  0  0  0  0
 12 14  1  0  0  0  0
 13 26  1  0  0  0  0
 13 27  1  0  0  0  0
 14 15  1  0  0  0  0
 15 28  1  0  0  0  0
 15 29  1  0  0  0  0
 15 30  1  0  0  0  0
 16 17  1  0  0  0  0
 16 31  1  0  0  0  0
 17 18  1  0  0  0  0
 18 19  1  0  0  0  0
 19 32  1  0  0  0  0
 19 33  1  0  0  0  0
 19 34  1  0  0  0  0
M  END
$$$$
