ZINC000000053246      none
 OpenBabel11202420153D

 30 31  0  0  1  0  0  0  0  0999 V2000
   32.5611   39.4275   57.8110 C   0  0  0  0  0  0  0  0  0  0  0  0
   33.5719   38.4243   57.9279 O   0  0  0  0  0  0  0  0  0  0  0  0
   33.3098   37.2150   57.3633 C   0  0  0  0  0  0  0  0  0  0  0  0
   33.6667   36.9753   56.0471 C   0  0  0  0  0  0  0  0  0  0  0  0
   33.4025   35.7454   55.4642 C   0  0  0  0  0  0  0  0  0  0  0  0
   32.7848   34.7560   56.1898 C   0  0  0  0  0  0  0  0  0  0  0  0
   32.4168   34.9789   57.5218 C   0  0  0  0  0  0  0  0  0  0  0  0
   32.6831   36.2217   58.1097 C   0  0  0  0  0  0  0  0  0  0  0  0
   32.3320   36.4559   59.3997 O   0  0  0  0  0  0  0  0  0  0  0  0
   30.9447   36.3473   59.7244 C   0  0  0  0  0  0  0  0  0  0  0  0
   31.7831   33.7531   58.0313 C   0  0  0  0  0  0  0  0  0  0  0  0
   31.3479   33.6124   59.1571 O   0  0  0  0  0  0  0  0  0  0  0  0
   31.7540   32.8113   57.0732 O   0  0  0  0  0  0  0  0  0  0  0  0
   32.3640   33.3443   55.8660 C   0  0  2  0  0  0  0  0  0  0  0  0
   31.6408   33.3473   55.0503 H   0  0  0  0  0  0  0  0  0  0  0  0
   33.5337   32.5429   55.4974 N   0  0  0  0  0  0  0  0  0  0  0  0
   33.9252   32.4744   54.2096 C   0  0  0  0  0  0  0  0  0  0  0  0
   35.0044   31.7415   53.8714 N   0  0  0  0  0  0  0  0  0  0  0  0
   33.3074   33.0778   53.3536 O   0  0  0  0  0  0  0  0  0  0  0  0
   31.6441   39.0761   58.2839 H   0  0  0  0  0  0  0  0  0  0  0  0
   32.8967   40.3405   58.3029 H   0  0  0  0  0  0  0  0  0  0  0  0
   32.3714   39.6311   56.7572 H   0  0  0  0  0  0  0  0  0  0  0  0
   34.1526   37.7497   55.4720 H   0  0  0  0  0  0  0  0  0  0  0  0
   33.6827   35.5648   54.4369 H   0  0  0  0  0  0  0  0  0  0  0  0
   30.3756   37.0631   59.1314 H   0  0  0  0  0  0  0  0  0  0  0  0
   30.5983   35.3372   59.5056 H   0  0  0  0  0  0  0  0  0  0  0  0
   30.8020   36.5585   60.7843 H   0  0  0  0  0  0  0  0  0  0  0  0
   34.0264   32.0616   56.1804 H   0  0  0  0  0  0  0  0  0  0  0  0
   35.2887   31.6955   52.9451 H   0  0  0  0  0  0  0  0  0  0  0  0
   35.4972   31.2602   54.5544 H   0  0  0  0  0  0  0  0  0  0  0  0
  1  2  1  0  0  0  0
  1 20  1  0  0  0  0
  1 21  1  0  0  0  0
  1 22  1  0  0  0  0
  2  3  1  0  0  0  0
  3  8  2  0  0  0  0
  3  4  1  0  0  0  0
  4  5  2  0  0  0  0
  4 23  1  0  0  0  0
  5  6  1  0  0  0  0
  5 24  1  0  0  0  0
  6 14  1  0  0  0  0
  6  7  2  0  0  0  0
  7  8  1  0  0  0  0
  7 11  1  0  0  0  0
  8  9  1  0  0  0  0
  9 10  1  0  0  0  0
 10 25  1  0  0  0  0
 10 26  1  0  0  0  0
 10 27  1  0  0  0  0
 11 12  2  0  0  0  0
 11 13  1  0  0  0  0
 13 14  1  0  0  0  0
 14 15  1  6  0  0  0
 14 16  1  0  0  0  0
 16 17  1  0  0  0  0
 16 28  1  0  0  0  0
 17 18  1  0  0  0  0
 17 19  2  0  0  0  0
 18 29  1  0  0  0  0
 18 30  1  0  0  0  0
M  END
$$$$
