ZINC000000037050      none
 OpenBabel11202420153D

 24 25  0  0  0  0  0  0  0  0999 V2000
   33.6381   40.5369   66.7176 O   0  0  0  0  0  0  0  0  0  0  0  0
   33.6932   39.4839   67.3274 N   0  0  0  0  0  0  0  0  0  0  0  0
   34.4208   39.3800   68.2987 O   0  0  0  0  0  0  0  0  0  0  0  0
   32.8757   38.3306   66.8881 C   0  0  0  0  0  0  0  0  0  0  0  0
   32.0346   38.3116   65.8366 C   0  0  0  0  0  0  0  0  0  0  0  0
   31.4870   37.0579   65.7902 N   0  0  0  0  0  0  0  0  0  0  0  0
   30.5120   36.5709   64.8112 C   0  0  0  0  0  0  0  0  0  0  0  0
   30.9340   36.9954   63.4281 C   0  0  0  0  0  0  0  0  0  0  0  0
   30.4962   38.2013   62.9107 C   0  0  0  0  0  0  0  0  0  0  0  0
   29.4608   39.2262   63.8545 Cl  0  0  0  0  0  0  0  0  0  0  0  0
   30.8882   38.5928   61.6429 C   0  0  0  0  0  0  0  0  0  0  0  0
   31.7077   37.7740   60.8889 C   0  0  0  0  0  0  0  0  0  0  0  0
   32.1412   36.5665   61.4033 C   0  0  0  0  0  0  0  0  0  0  0  0
   31.7545   36.1765   62.6732 C   0  0  0  0  0  0  0  0  0  0  0  0
   32.2985   34.6596   63.3190 Cl  0  0  0  0  0  0  0  0  0  0  0  0
   32.0090   36.3556   66.8188 C   0  0  0  0  0  0  0  0  0  0  0  0
   32.8428   37.1216   67.4679 N   0  0  0  0  0  0  0  0  0  0  0  0
   31.8315   39.1283   65.1598 H   0  0  0  0  0  0  0  0  0  0  0  0
   29.5311   36.9894   65.0363 H   0  0  0  0  0  0  0  0  0  0  0  0
   30.4624   35.4830   64.8581 H   0  0  0  0  0  0  0  0  0  0  0  0
   30.5499   39.5361   61.2404 H   0  0  0  0  0  0  0  0  0  0  0  0
   32.0098   38.0779   59.8976 H   0  0  0  0  0  0  0  0  0  0  0  0
   32.7815   35.9272   60.8137 H   0  0  0  0  0  0  0  0  0  0  0  0
   31.7766   35.3295   67.0626 H   0  0  0  0  0  0  0  0  0  0  0  0
  1  2  2  0  0  0  0
  2  3  2  0  0  0  0
  2  4  1  0  0  0  0
  4 17  1  0  0  0  0
  4  5  2  0  0  0  0
  5  6  1  0  0  0  0
  5 18  1  0  0  0  0
  6  7  1  0  0  0  0
  6 16  1  0  0  0  0
  7  8  1  0  0  0  0
  7 19  1  0  0  0  0
  7 20  1  0  0  0  0
  8 14  2  0  0  0  0
  8  9  1  0  0  0  0
  9 10  1  0  0  0  0
  9 11  2  0  0  0  0
 11 12  1  0  0  0  0
 11 21  1  0  0  0  0
 12 13  2  0  0  0  0
 12 22  1  0  0  0  0
 13 14  1  0  0  0  0
 13 23  1  0  0  0  0
 14 15  1  0  0  0  0
 16 17  2  0  0  0  0
 16 24  1  0  0  0  0
M  END
$$$$
