ZINC000000019323      none
 OpenBabel11202420153D

 27 28  0  0  0  0  0  0  0  0999 V2000
   30.3799   36.8975   63.0550 C   0  0  0  0  0  0  0  0  0  0  0  0
   30.8613   36.3443   61.7868 N   0  0  0  0  0  0  0  0  0  0  0  0
   31.8158   36.9908   61.0887 C   0  0  0  0  0  0  0  0  0  0  0  0
   32.2778   38.0343   61.5118 O   0  0  0  0  0  0  0  0  0  0  0  0
   32.2970   36.4378   59.8211 C   0  0  0  0  0  0  0  0  0  0  0  0
   32.7417   37.2623   58.8516 C   0  0  0  0  0  0  0  0  0  0  0  0
   32.8087   38.7682   58.9307 C   0  0  0  0  0  0  0  0  0  0  0  0
   33.3830   39.2204   57.5809 C   0  0  0  0  0  0  0  0  0  0  0  0
   33.6237   37.9633   56.7798 C   0  0  0  0  0  0  0  0  0  0  0  0
   34.1284   37.7956   55.5025 C   0  0  0  0  0  0  0  0  0  0  0  0
   34.5959   39.1830   54.5697 Cl  0  0  0  0  0  0  0  0  0  0  0  0
   34.2630   36.5279   54.9653 C   0  0  0  0  0  0  0  0  0  0  0  0
   33.8918   35.4155   55.7041 C   0  0  0  0  0  0  0  0  0  0  0  0
   34.0251   34.1795   55.1752 F   0  0  0  0  0  0  0  0  0  0  0  0
   33.3863   35.5680   56.9784 C   0  0  0  0  0  0  0  0  0  0  0  0
   33.2530   36.8501   57.5333 C   0  0  0  0  0  0  0  0  0  0  0  0
   29.9555   37.8865   62.8823 H   0  0  0  0  0  0  0  0  0  0  0  0
   29.6152   36.2414   63.4706 H   0  0  0  0  0  0  0  0  0  0  0  0
   31.2110   36.9762   63.7559 H   0  0  0  0  0  0  0  0  0  0  0  0
   30.4930   35.5127   61.4496 H   0  0  0  0  0  0  0  0  0  0  0  0
   32.2913   35.3698   59.6610 H   0  0  0  0  0  0  0  0  0  0  0  0
   31.8113   39.1835   59.0749 H   0  0  0  0  0  0  0  0  0  0  0  0
   33.4675   39.0749   59.7431 H   0  0  0  0  0  0  0  0  0  0  0  0
   32.6676   39.8614   57.0657 H   0  0  0  0  0  0  0  0  0  0  0  0
   34.3212   39.7537   57.7332 H   0  0  0  0  0  0  0  0  0  0  0  0
   34.6578   36.4048   53.9676 H   0  0  0  0  0  0  0  0  0  0  0  0
   33.0979   34.6995   57.5519 H   0  0  0  0  0  0  0  0  0  0  0  0
  1  2  1  0  0  0  0
  1 17  1  0  0  0  0
  1 18  1  0  0  0  0
  1 19  1  0  0  0  0
  2  3  1  0  0  0  0
  2 20  1  0  0  0  0
  3  4  2  0  0  0  0
  3  5  1  0  0  0  0
  5  6  2  0  0  0  0
  5 21  1  0  0  0  0
  6 16  1  0  0  0  0
  6  7  1  0  0  0  0
  7  8  1  0  0  0  0
  7 22  1  0  0  0  0
  7 23  1  0  0  0  0
  8  9  1  0  0  0  0
  8 24  1  0  0  0  0
  8 25  1  0  0  0  0
  9 16  2  0  0  0  0
  9 10  1  0  0  0  0
 10 11  1  0  0  0  0
 10 12  2  0  0  0  0
 12 13  1  0  0  0  0
 12 26  1  0  0  0  0
 13 14  1  0  0  0  0
 13 15  2  0  0  0  0
 15 16  1  0  0  0  0
 15 27  1  0  0  0  0
M  END
$$$$
