ZINC000000024260      none
 OpenBabel11202420153D

 35 38  0  0  0  0  0  0  0  0999 V2000
   33.8938   36.4064   54.5074 C   0  0  0  0  0  0  0  0  0  0  0  0
   33.9944   37.7325   55.0302 O   0  0  0  0  0  0  0  0  0  0  0  0
   33.6109   37.9177   56.3216 C   0  0  0  0  0  0  0  0  0  0  0  0
   33.6842   39.1878   56.8912 C   0  0  0  0  0  0  0  0  0  0  0  0
   33.3008   39.3936   58.1968 C   0  0  0  0  0  0  0  0  0  0  0  0
   32.8340   38.3287   58.9616 C   0  0  0  0  0  0  0  0  0  0  0  0
   32.3843   38.2301   60.2598 N   0  0  0  0  0  0  0  0  0  0  0  0
   32.3220   38.9620   60.8932 H   0  0  0  0  0  0  0  0  0  0  0  0
   32.0403   36.9170   60.5123 C   0  0  0  0  0  0  0  0  0  0  0  0
   31.5199   36.4022   61.7869 C   0  0  0  0  0  0  0  0  0  0  0  0
   31.2475   35.2206   61.9008 O   0  0  0  0  0  0  0  0  0  0  0  0
   31.3281   37.3134   62.9238 C   0  0  0  0  0  0  0  0  0  0  0  0
   30.2006   37.9896   63.1758 C   0  0  0  0  0  0  0  0  0  0  0  0
   30.2249   38.8021   64.3200 C   0  0  0  0  0  0  0  0  0  0  0  0
   29.2042   39.6347   64.8398 C   0  0  0  0  0  0  0  0  0  0  0  0
   29.4160   40.3633   65.9673 C   0  0  0  0  0  0  0  0  0  0  0  0
   30.6377   40.3096   66.6276 C   0  0  0  0  0  0  0  0  0  0  0  0
   31.6499   39.5154   66.1449 C   0  0  0  0  0  0  0  0  0  0  0  0
   31.4567   38.7569   64.9857 C   0  0  0  0  0  0  0  0  0  0  0  0
   32.5453   37.6645   64.1381 S   0  0  0  0  0  0  0  0  0  0  0  0
   32.2544   36.1764   59.3909 C   0  0  0  0  0  0  0  0  0  0  0  0
   32.7572   37.0430   58.3914 C   0  0  0  0  0  0  0  0  0  0  0  0
   33.1512   36.8485   57.0602 C   0  0  0  0  0  0  0  0  0  0  0  0
   34.5176   35.7350   55.0974 H   0  0  0  0  0  0  0  0  0  0  0  0
   32.8567   36.0747   54.5553 H   0  0  0  0  0  0  0  0  0  0  0  0
   34.2304   36.3981   53.4707 H   0  0  0  0  0  0  0  0  0  0  0  0
   34.0457   40.0180   56.3025 H   0  0  0  0  0  0  0  0  0  0  0  0
   33.3625   40.3817   58.6281 H   0  0  0  0  0  0  0  0  0  0  0  0
   29.3282   37.9108   62.5439 H   0  0  0  0  0  0  0  0  0  0  0  0
   28.2488   39.6876   64.3389 H   0  0  0  0  0  0  0  0  0  0  0  0
   28.6264   40.9905   66.3544 H   0  0  0  0  0  0  0  0  0  0  0  0
   30.7919   40.8934   67.5231 H   0  0  0  0  0  0  0  0  0  0  0  0
   32.5974   39.4772   66.6618 H   0  0  0  0  0  0  0  0  0  0  0  0
   32.0730   35.1173   59.2830 H   0  0  0  0  0  0  0  0  0  0  0  0
   33.0956   35.8657   56.6159 H   0  0  0  0  0  0  0  0  0  0  0  0
  1  2  1  0  0  0  0
  1 24  1  0  0  0  0
  1 25  1  0  0  0  0
  1 26  1  0  0  0  0
  2  3  1  0  0  0  0
  3 23  2  0  0  0  0
  3  4  1  0  0  0  0
  4  5  2  0  0  0  0
  4 27  1  0  0  0  0
  5  6  1  0  0  0  0
  5 28  1  0  0  0  0
  6 22  2  0  0  0  0
  6  7  1  0  0  0  0
  7  8  1  0  0  0  0
  7  9  1  0  0  0  0
  9 10  1  0  0  0  0
  9 21  2  0  0  0  0
 10 11  2  0  0  0  0
 10 12  1  0  0  0  0
 12 20  1  0  0  0  0
 12 13  2  0  0  0  0
 13 14  1  0  0  0  0
 13 29  1  0  0  0  0
 14 19  2  0  0  0  0
 14 15  1  0  0  0  0
 15 16  2  0  0  0  0
 15 30  1  0  0  0  0
 16 17  1  0  0  0  0
 16 31  1  0  0  0  0
 17 18  2  0  0  0  0
 17 32  1  0  0  0  0
 18 19  1  0  0  0  0
 18 33  1  0  0  0  0
 19 20  1  0  0  0  0
 21 22  1  0  0  0  0
 21 34  1  0  0  0  0
 22 23  1  0  0  0  0
 23 35  1  0  0  0  0
M  END
$$$$
