ZINC000000049915      none
 OpenBabel11202420153D

 33 35  0  0  0  0  0  0  0  0999 V2000
   29.8264   35.8549   66.2321 C   0  0  0  0  0  0  0  0  0  0  0  0
   28.8227   34.6715   65.3006 S   0  0  0  0  0  0  0  0  0  0  0  0
   29.6519   34.7234   63.7468 C   0  0  0  0  0  0  0  0  0  0  0  0
   30.6352   33.9585   63.4105 N   0  0  0  0  0  0  0  0  0  0  0  0
   31.1672   34.1179   62.1836 C   0  0  0  0  0  0  0  0  0  0  0  0
   32.2365   33.4112   61.5885 C   0  0  0  0  0  0  0  0  0  0  0  0
   32.6484   33.7059   60.3280 C   0  0  0  0  0  0  0  0  0  0  0  0
   32.0192   34.7178   59.5910 C   0  0  0  0  0  0  0  0  0  0  0  0
   32.4397   35.0071   58.3226 N   0  0  0  0  0  0  0  0  0  0  0  0
   32.8778   36.2007   58.0377 C   0  0  0  0  0  0  0  0  0  0  0  0
   33.3306   36.5121   56.6716 C   0  0  0  0  0  0  0  0  0  0  0  0
   33.2977   35.5280   55.6789 C   0  0  0  0  0  0  0  0  0  0  0  0
   33.7189   35.8286   54.4009 C   0  0  0  0  0  0  0  0  0  0  0  0
   34.1836   37.0978   54.1021 C   0  0  0  0  0  0  0  0  0  0  0  0
   34.2242   38.0755   55.0805 C   0  0  0  0  0  0  0  0  0  0  0  0
   34.7232   39.4295   54.7509 N   0  0  0  0  0  0  0  0  0  0  0  0
   35.0976   39.6820   53.6197 O   0  0  0  0  0  0  0  0  0  0  0  0
   34.7596   40.2913   55.6110 O   0  0  0  0  0  0  0  0  0  0  0  0
   33.8012   37.7915   56.3622 C   0  0  0  0  0  0  0  0  0  0  0  0
   30.9628   35.4272   60.1573 C   0  0  0  0  0  0  0  0  0  0  0  0
   30.5393   35.1288   61.4464 C   0  0  0  0  0  0  0  0  0  0  0  0
   29.2570   35.8247   62.4346 S   0  0  0  0  0  0  0  0  0  0  0  0
   30.8586   35.5063   66.2690 H   0  0  0  0  0  0  0  0  0  0  0  0
   29.7890   36.8280   65.7423 H   0  0  0  0  0  0  0  0  0  0  0  0
   29.4364   35.9434   67.2461 H   0  0  0  0  0  0  0  0  0  0  0  0
   32.7328   32.6283   62.1428 H   0  0  0  0  0  0  0  0  0  0  0  0
   33.4679   33.1553   59.8902 H   0  0  0  0  0  0  0  0  0  0  0  0
   32.9086   36.9615   58.8035 H   0  0  0  0  0  0  0  0  0  0  0  0
   32.9396   34.5361   55.9116 H   0  0  0  0  0  0  0  0  0  0  0  0
   33.6906   35.0707   53.6321 H   0  0  0  0  0  0  0  0  0  0  0  0
   34.5164   37.3261   53.1004 H   0  0  0  0  0  0  0  0  0  0  0  0
   33.8338   38.5555   57.1249 H   0  0  0  0  0  0  0  0  0  0  0  0
   30.4730   36.2082   59.5947 H   0  0  0  0  0  0  0  0  0  0  0  0
  1  2  1  0  0  0  0
  1 23  1  0  0  0  0
  1 24  1  0  0  0  0
  1 25  1  0  0  0  0
  2  3  1  0  0  0  0
  3 22  1  0  0  0  0
  3  4  2  0  0  0  0
  4  5  1  0  0  0  0
  5 21  2  0  0  0  0
  5  6  1  0  0  0  0
  6  7  2  0  0  0  0
  6 26  1  0  0  0  0
  7  8  1  0  0  0  0
  7 27  1  0  0  0  0
  8  9  1  0  0  0  0
  8 20  2  0  0  0  0
  9 10  2  0  0  0  0
 10 11  1  0  0  0  0
 10 28  1  0  0  0  0
 11 19  2  0  0  0  0
 11 12  1  0  0  0  0
 12 13  2  0  0  0  0
 12 29  1  0  0  0  0
 13 14  1  0  0  0  0
 13 30  1  0  0  0  0
 14 15  2  0  0  0  0
 14 31  1  0  0  0  0
 15 16  1  0  0  0  0
 15 19  1  0  0  0  0
 16 17  2  0  0  0  0
 16 18  2  0  0  0  0
 19 32  1  0  0  0  0
 20 21  1  0  0  0  0
 20 33  1  0  0  0  0
 21 22  1  0  0  0  0
M  END
$$$$
