ZINC000000056719      none
 OpenBabel11202420153D

 29 29  0  0  1  0  0  0  0  0999 V2000
   31.8759   37.5284   58.8981 C   0  0  0  0  0  0  0  0  0  0  0  0
   31.3600   37.6194   60.3111 C   0  0  0  0  0  0  0  0  0  0  0  0
   31.8262   38.4329   61.0731 O   0  0  0  0  0  0  0  0  0  0  0  0
   30.3826   36.7968   60.7230 O   0  0  0  0  0  0  0  0  0  0  0  0
   29.9350   36.9410   62.0967 C   0  0  1  0  0  0  0  0  0  0  0  0
   30.0586   37.9768   62.4125 H   0  0  0  0  0  0  0  0  0  0  0  0
   28.4847   36.5524   62.1920 C   0  0  0  0  0  0  0  0  0  0  0  0
   28.0144   35.8307   63.1747 C   0  0  0  0  0  0  0  0  0  0  0  0
   28.7819   35.3537   64.1795 O   0  0  0  0  0  0  0  0  0  0  0  0
   30.0701   35.9459   64.3689 C   0  0  1  0  0  0  0  0  0  0  0  0
   29.9569   36.9472   64.7844 H   0  0  0  0  0  0  0  0  0  0  0  0
   30.8997   35.0829   65.3217 C   0  0  0  0  0  0  0  0  0  0  0  0
   30.7669   36.0277   63.0036 C   0  0  1  0  0  0  0  0  0  0  0  0
   31.7674   36.4427   63.1255 H   0  0  0  0  0  0  0  0  0  0  0  0
   30.8545   34.7019   62.4180 O   0  0  0  0  0  0  0  0  0  0  0  0
   31.8908   34.4649   61.5985 C   0  0  0  0  0  0  0  0  0  0  0  0
   32.0476   33.1119   60.9538 C   0  0  0  0  0  0  0  0  0  0  0  0
   32.6982   35.3365   61.3779 O   0  0  0  0  0  0  0  0  0  0  0  0
   31.0602   37.7186   58.2006 H   0  0  0  0  0  0  0  0  0  0  0  0
   32.6612   38.2695   58.7495 H   0  0  0  0  0  0  0  0  0  0  0  0
   32.2794   36.5312   58.7221 H   0  0  0  0  0  0  0  0  0  0  0  0
   27.8059   36.8854   61.4208 H   0  0  0  0  0  0  0  0  0  0  0  0
   26.9593   35.5999   63.1818 H   0  0  0  0  0  0  0  0  0  0  0  0
   31.0193   34.0858   64.8979 H   0  0  0  0  0  0  0  0  0  0  0  0
   31.8801   35.5375   65.4633 H   0  0  0  0  0  0  0  0  0  0  0  0
   30.3905   35.0105   66.2829 H   0  0  0  0  0  0  0  0  0  0  0  0
   31.5247   33.1023   59.9975 H   0  0  0  0  0  0  0  0  0  0  0  0
   33.1059   32.9072   60.7913 H   0  0  0  0  0  0  0  0  0  0  0  0
   31.6257   32.3475   61.6063 H   0  0  0  0  0  0  0  0  0  0  0  0
  1  2  1  0  0  0  0
  1 19  1  0  0  0  0
  1 20  1  0  0  0  0
  1 21  1  0  0  0  0
  2  3  2  0  0  0  0
  2  4  1  0  0  0  0
  4  5  1  0  0  0  0
  5  6  1  1  0  0  0
  5 13  1  0  0  0  0
  5  7  1  0  0  0  0
  7  8  2  0  0  0  0
  7 22  1  0  0  0  0
  8  9  1  0  0  0  0
  8 23  1  0  0  0  0
  9 10  1  0  0  0  0
 10 11  1  1  0  0  0
 10 12  1  0  0  0  0
 10 13  1  0  0  0  0
 12 24  1  0  0  0  0
 12 25  1  0  0  0  0
 12 26  1  0  0  0  0
 13 14  1  1  0  0  0
 13 15  1  0  0  0  0
 15 16  1  0  0  0  0
 16 17  1  0  0  0  0
 16 18  2  0  0  0  0
 17 27  1  0  0  0  0
 17 28  1  0  0  0  0
 17 29  1  0  0  0  0
M  END
$$$$
