ZINC000000001279      none
 OpenBabel11202420153D

 20 20  0  0  0  0  0  0  0  0999 V2000
   32.4058   38.8085   57.9657 C   0  0  0  0  0  0  0  0  0  0  0  0
   31.9554   38.1614   59.2500 C   0  0  0  0  0  0  0  0  0  0  0  0
   30.6558   37.7080   59.3769 C   0  0  0  0  0  0  0  0  0  0  0  0
   30.2427   37.1145   60.5550 C   0  0  0  0  0  0  0  0  0  0  0  0
   31.1278   36.9792   61.6082 C   0  0  0  0  0  0  0  0  0  0  0  0
   30.5993   36.2291   63.1124 S   0  0  0  0  0  0  0  0  0  0  0  0
   29.2607   35.8022   62.8992 O   0  0  0  0  0  0  0  0  0  0  0  0
   31.6417   35.3490   63.5098 O   0  0  0  0  0  0  0  0  0  0  0  0
   30.5326   37.4226   64.2583 N   0  0  0  0  0  0  0  0  0  0  0  0
   29.4997   38.7668   64.0338 Cl  0  0  0  0  0  0  0  0  0  0  0  0
   31.4965   37.3109   65.6664 Cl  0  0  0  0  0  0  0  0  0  0  0  0
   32.4290   37.4278   61.4795 C   0  0  0  0  0  0  0  0  0  0  0  0
   32.8422   38.0209   60.3012 C   0  0  0  0  0  0  0  0  0  0  0  0
   32.2294   39.8828   58.0188 H   0  0  0  0  0  0  0  0  0  0  0  0
   33.4695   38.6217   57.8182 H   0  0  0  0  0  0  0  0  0  0  0  0
   31.8442   38.3888   57.1311 H   0  0  0  0  0  0  0  0  0  0  0  0
   29.9630   37.8179   58.5558 H   0  0  0  0  0  0  0  0  0  0  0  0
   29.2271   36.7606   60.6542 H   0  0  0  0  0  0  0  0  0  0  0  0
   33.1217   37.3183   62.3008 H   0  0  0  0  0  0  0  0  0  0  0  0
   33.8577   38.3748   60.2019 H   0  0  0  0  0  0  0  0  0  0  0  0
  1  2  1  0  0  0  0
  1 14  1  0  0  0  0
  1 15  1  0  0  0  0
  1 16  1  0  0  0  0
  2 13  2  0  0  0  0
  2  3  1  0  0  0  0
  3  4  2  0  0  0  0
  3 17  1  0  0  0  0
  4  5  1  0  0  0  0
  4 18  1  0  0  0  0
  5  6  1  0  0  0  0
  5 12  2  0  0  0  0
  6  7  2  0  0  0  0
  6  8  2  0  0  0  0
  6  9  1  0  0  0  0
  9 10  1  0  0  0  0
  9 11  1  0  0  0  0
 12 13  1  0  0  0  0
 12 19  1  0  0  0  0
 13 20  1  0  0  0  0
M  END
$$$$
