ZINC000000003880      none
 OpenBabel11202420153D

 36 37  0  0  0  0  0  0  0  0999 V2000
   33.4354   39.1564   56.6781 C   0  0  0  0  0  0  0  0  0  0  0  0
   33.2857   39.2440   58.1750 C   0  0  0  0  0  0  0  0  0  0  0  0
   33.7598   40.1838   58.7781 O   0  0  0  0  0  0  0  0  0  0  0  0
   32.5663   38.1925   58.9033 C   0  0  0  0  0  0  0  0  0  0  0  0
   32.5683   36.8774   58.4212 C   0  0  0  0  0  0  0  0  0  0  0  0
   31.8883   35.8940   59.1020 C   0  0  0  0  0  0  0  0  0  0  0  0
   31.2070   36.2000   60.2760 C   0  0  0  0  0  0  0  0  0  0  0  0
   30.5262   35.2006   60.9637 N   0  0  0  0  0  0  0  0  0  0  0  0
   31.3485   33.8825   61.5374 S   0  0  0  0  0  0  0  0  0  0  0  0
   31.2799   32.6806   60.1805 C   0  0  0  0  0  0  0  0  0  0  0  0
   32.6772   34.3514   61.7215 O   0  0  0  0  0  0  0  0  0  0  0  0
   30.5699   33.4361   62.6390 O   0  0  0  0  0  0  0  0  0  0  0  0
   31.2053   37.5085   60.7660 C   0  0  0  0  0  0  0  0  0  0  0  0
   30.5388   37.8039   61.9139 O   0  0  0  0  0  0  0  0  0  0  0  0
   30.9145   37.1636   63.0531 C   0  0  0  0  0  0  0  0  0  0  0  0
   32.2117   37.2924   63.5262 C   0  0  0  0  0  0  0  0  0  0  0  0
   32.5911   36.6451   64.6865 C   0  0  0  0  0  0  0  0  0  0  0  0
   31.6802   35.8593   65.3722 C   0  0  0  0  0  0  0  0  0  0  0  0
   32.0553   35.2229   66.5034 F   0  0  0  0  0  0  0  0  0  0  0  0
   30.3859   35.7244   64.8997 C   0  0  0  0  0  0  0  0  0  0  0  0
   30.0010   36.3752   63.7413 C   0  0  0  0  0  0  0  0  0  0  0  0
   28.7383   36.2436   63.2795 F   0  0  0  0  0  0  0  0  0  0  0  0
   31.8802   38.5007   60.0856 C   0  0  0  0  0  0  0  0  0  0  0  0
   32.8710   38.3015   56.3058 H   0  0  0  0  0  0  0  0  0  0  0  0
   33.0551   40.0699   56.2208 H   0  0  0  0  0  0  0  0  0  0  0  0
   34.4886   39.0346   56.4248 H   0  0  0  0  0  0  0  0  0  0  0  0
   33.1003   36.6360   57.5127 H   0  0  0  0  0  0  0  0  0  0  0  0
   31.8870   34.8813   58.7267 H   0  0  0  0  0  0  0  0  0  0  0  0
   29.5699   35.2758   61.1073 H   0  0  0  0  0  0  0  0  0  0  0  0
   31.7559   33.1038   59.2959 H   0  0  0  0  0  0  0  0  0  0  0  0
   31.8032   31.7707   60.4745 H   0  0  0  0  0  0  0  0  0  0  0  0
   30.2397   32.4451   59.9560 H   0  0  0  0  0  0  0  0  0  0  0  0
   32.9243   37.9014   62.9899 H   0  0  0  0  0  0  0  0  0  0  0  0
   33.6003   36.7487   65.0566 H   0  0  0  0  0  0  0  0  0  0  0  0
   29.6766   35.1115   65.4357 H   0  0  0  0  0  0  0  0  0  0  0  0
   31.8795   39.5126   60.4630 H   0  0  0  0  0  0  0  0  0  0  0  0
  1  2  1  0  0  0  0
  1 24  1  0  0  0  0
  1 25  1  0  0  0  0
  1 26  1  0  0  0  0
  2  3  2  0  0  0  0
  2  4  1  0  0  0  0
  4 23  2  0  0  0  0
  4  5  1  0  0  0  0
  5  6  2  0  0  0  0
  5 27  1  0  0  0  0
  6  7  1  0  0  0  0
  6 28  1  0  0  0  0
  7  8  1  0  0  0  0
  7 13  2  0  0  0  0
  8  9  1  0  0  0  0
  8 29  1  0  0  0  0
  9 10  1  0  0  0  0
  9 11  2  0  0  0  0
  9 12  2  0  0  0  0
 10 30  1  0  0  0  0
 10 31  1  0  0  0  0
 10 32  1  0  0  0  0
 13 14  1  0  0  0  0
 13 23  1  0  0  0  0
 14 15  1  0  0  0  0
 15 21  2  0  0  0  0
 15 16  1  0  0  0  0
 16 17  2  0  0  0  0
 16 33  1  0  0  0  0
 17 18  1  0  0  0  0
 17 34  1  0  0  0  0
 18 19  1  0  0  0  0
 18 20  2  0  0  0  0
 20 21  1  0  0  0  0
 20 35  1  0  0  0  0
 21 22  1  0  0  0  0
 23 36  1  0  0  0  0
M  END
$$$$
