ZINC000000052424      none
 OpenBabel11202420153D

 31 33  0  0  0  0  0  0  0  0999 V2000
   35.7111   39.1537   53.2232 C   0  0  0  0  0  0  0  0  0  0  0  0
   34.8799   40.0807   54.0721 C   0  0  0  0  0  0  0  0  0  0  0  0
   34.6657   41.2163   53.6999 O   0  0  0  0  0  0  0  0  0  0  0  0
   34.3488   39.6273   55.3036 C   0  0  0  0  0  0  0  0  0  0  0  0
   34.1105   40.4023   56.3847 O   0  0  0  0  0  0  0  0  0  0  0  0
   33.6060   39.6515   57.3841 C   0  0  0  0  0  0  0  0  0  0  0  0
   33.1986   39.9578   58.6832 C   0  0  0  0  0  0  0  0  0  0  0  0
   32.7146   38.9859   59.5052 C   0  0  0  0  0  0  0  0  0  0  0  0
   32.6173   37.6580   59.0592 C   0  0  0  0  0  0  0  0  0  0  0  0
   32.0982   36.6063   59.9362 C   0  0  0  0  0  0  0  0  0  0  0  0
   31.6531   36.9204   61.3413 C   0  0  0  0  0  0  0  0  0  0  0  0
   32.0281   35.3400   59.4492 C   0  0  0  0  0  0  0  0  0  0  0  0
   32.4507   35.0738   58.1308 C   0  0  0  0  0  0  0  0  0  0  0  0
   32.3838   33.9351   57.7036 O   0  0  0  0  0  0  0  0  0  0  0  0
   32.9246   36.0451   57.3350 O   0  0  0  0  0  0  0  0  0  0  0  0
   33.0197   37.3204   57.7589 C   0  0  0  0  0  0  0  0  0  0  0  0
   33.5181   38.3280   56.9157 C   0  0  0  0  0  0  0  0  0  0  0  0
   33.9986   38.3403   55.5850 C   0  0  0  0  0  0  0  0  0  0  0  0
   34.0979   37.1586   54.6551 C   0  0  0  0  0  0  0  0  0  0  0  0
   35.0626   38.6115   52.5350 H   0  0  0  0  0  0  0  0  0  0  0  0
   36.4382   39.7346   52.6556 H   0  0  0  0  0  0  0  0  0  0  0  0
   36.2340   38.4443   53.8647 H   0  0  0  0  0  0  0  0  0  0  0  0
   33.2673   40.9749   59.0398 H   0  0  0  0  0  0  0  0  0  0  0  0
   32.4029   39.2385   60.5079 H   0  0  0  0  0  0  0  0  0  0  0  0
   30.5946   37.1801   61.3376 H   0  0  0  0  0  0  0  0  0  0  0  0
   31.8111   36.0484   61.9760 H   0  0  0  0  0  0  0  0  0  0  0  0
   32.2319   37.7598   61.7267 H   0  0  0  0  0  0  0  0  0  0  0  0
   31.6505   34.5406   60.0695 H   0  0  0  0  0  0  0  0  0  0  0  0
   35.0745   36.6880   54.7687 H   0  0  0  0  0  0  0  0  0  0  0  0
   33.3169   36.4383   54.8983 H   0  0  0  0  0  0  0  0  0  0  0  0
   33.9743   37.4950   53.6257 H   0  0  0  0  0  0  0  0  0  0  0  0
  1  2  1  0  0  0  0
  1 20  1  0  0  0  0
  1 21  1  0  0  0  0
  1 22  1  0  0  0  0
  2  3  2  0  0  0  0
  2  4  1  0  0  0  0
  4 18  2  0  0  0  0
  4  5  1  0  0  0  0
  5  6  1  0  0  0  0
  6 17  2  0  0  0  0
  6  7  1  0  0  0  0
  7  8  2  0  0  0  0
  7 23  1  0  0  0  0
  8  9  1  0  0  0  0
  8 24  1  0  0  0  0
  9 16  2  0  0  0  0
  9 10  1  0  0  0  0
 10 11  1  0  0  0  0
 10 12  2  0  0  0  0
 11 25  1  0  0  0  0
 11 26  1  0  0  0  0
 11 27  1  0  0  0  0
 12 13  1  0  0  0  0
 12 28  1  0  0  0  0
 13 14  2  0  0  0  0
 13 15  1  0  0  0  0
 15 16  1  0  0  0  0
 16 17  1  0  0  0  0
 17 18  1  0  0  0  0
 18 19  1  0  0  0  0
 19 29  1  0  0  0  0
 19 30  1  0  0  0  0
 19 31  1  0  0  0  0
M  END
$$$$
