ZINC000000051408      none
 OpenBabel11202420153D

 31 33  0  0  0  0  0  0  0  0999 V2000
   31.8105   36.7471   60.4502 O   0  0  0  0  0  0  0  0  0  0  0  0
   31.7350   37.8569   60.9404 C   0  0  0  0  0  0  0  0  0  0  0  0
   32.1610   38.9307   60.2462 N   0  0  0  0  0  0  0  0  0  0  0  0
   32.6860   38.7693   58.9711 C   0  0  0  0  0  0  0  0  0  0  0  0
   32.8142   37.6375   58.3511 N   0  0  0  0  0  0  0  0  0  0  0  0
   33.3353   37.6745   57.1327 C   0  0  0  0  0  0  0  0  0  0  0  0
   33.5308   36.4514   56.3167 C   0  0  0  0  0  0  0  0  0  0  0  0
   34.5696   36.3880   55.3894 C   0  0  0  0  0  0  0  0  0  0  0  0
   34.7503   35.2458   54.6365 C   0  0  0  0  0  0  0  0  0  0  0  0
   33.8953   34.1682   54.7930 C   0  0  0  0  0  0  0  0  0  0  0  0
   34.1235   32.7372   53.8371 Cl  0  0  0  0  0  0  0  0  0  0  0  0
   32.8589   34.2281   55.7088 C   0  0  0  0  0  0  0  0  0  0  0  0
   32.6728   35.3638   56.4703 C   0  0  0  0  0  0  0  0  0  0  0  0
   33.6791   38.8969   56.6895 C   0  0  0  0  0  0  0  0  0  0  0  0
   33.2884   40.0687   57.9463 S   0  0  0  0  0  0  0  0  0  0  0  0
   31.1761   38.0286   62.2978 C   0  0  0  0  0  0  0  0  0  0  0  0
   31.2497   36.9904   63.2348 C   0  0  0  0  0  0  0  0  0  0  0  0
   30.7071   37.2004   64.4899 C   0  0  0  0  0  0  0  0  0  0  0  0
   30.1240   38.4211   64.7801 C   0  0  0  0  0  0  0  0  0  0  0  0
   30.0690   39.3815   63.8772 N   0  0  0  0  0  0  0  0  0  0  0  0
   30.5667   39.2282   62.6677 C   0  0  0  0  0  0  0  0  0  0  0  0
   32.1006   39.8163   60.6375 H   0  0  0  0  0  0  0  0  0  0  0  0
   35.2343   37.2299   55.2635 H   0  0  0  0  0  0  0  0  0  0  0  0
   35.5574   35.1942   53.9207 H   0  0  0  0  0  0  0  0  0  0  0  0
   32.1947   33.3848   55.8272 H   0  0  0  0  0  0  0  0  0  0  0  0
   31.8639   35.4095   57.1846 H   0  0  0  0  0  0  0  0  0  0  0  0
   34.1186   39.1218   55.7288 H   0  0  0  0  0  0  0  0  0  0  0  0
   31.7141   36.0485   62.9825 H   0  0  0  0  0  0  0  0  0  0  0  0
   30.7418   36.4209   65.2368 H   0  0  0  0  0  0  0  0  0  0  0  0
   29.7036   38.5892   65.7606 H   0  0  0  0  0  0  0  0  0  0  0  0
   30.5022   40.0377   61.9557 H   0  0  0  0  0  0  0  0  0  0  0  0
  1  2  2  0  0  0  0
  2  3  1  0  0  0  0
  2 16  1  0  0  0  0
  3  4  1  0  0  0  0
  3 22  1  0  0  0  0
  4 15  1  0  0  0  0
  4  5  2  0  0  0  0
  5  6  1  0  0  0  0
  6  7  1  0  0  0  0
  6 14  2  0  0  0  0
  7 13  2  0  0  0  0
  7  8  1  0  0  0  0
  8  9  2  0  0  0  0
  8 23  1  0  0  0  0
  9 10  1  0  0  0  0
  9 24  1  0  0  0  0
 10 11  1  0  0  0  0
 10 12  2  0  0  0  0
 12 13  1  0  0  0  0
 12 25  1  0  0  0  0
 13 26  1  0  0  0  0
 14 15  1  0  0  0  0
 14 27  1  0  0  0  0
 16 21  2  0  0  0  0
 16 17  1  0  0  0  0
 17 18  2  0  0  0  0
 17 28  1  0  0  0  0
 18 19  1  0  0  0  0
 18 29  1  0  0  0  0
 19 20  2  0  0  0  0
 19 30  1  0  0  0  0
 20 21  1  0  0  0  0
 21 31  1  0  0  0  0
M  END
$$$$
