ZINC000000023939      none
 OpenBabel11202420153D

 34 36  0  0  0  0  0  0  0  0999 V2000
   31.5618   36.3640   63.0373 O   0  0  0  0  0  0  0  0  0  0  0  0
   31.4533   37.0707   62.0536 C   0  0  0  0  0  0  0  0  0  0  0  0
   30.9891   38.3300   62.1764 N   0  0  0  0  0  0  0  0  0  0  0  0
   30.6319   38.8239   63.4349 C   0  0  0  0  0  0  0  0  0  0  0  0
   29.3317   39.2512   63.6717 C   0  0  0  0  0  0  0  0  0  0  0  0
   28.9824   39.7387   64.9157 C   0  0  0  0  0  0  0  0  0  0  0  0
   29.9268   39.8069   65.9235 C   0  0  0  0  0  0  0  0  0  0  0  0
   29.5436   40.3448   67.2779 C   0  0  0  0  0  0  0  0  0  0  0  0
   28.1924   40.7075   67.2705 F   0  0  0  0  0  0  0  0  0  0  0  0
   29.7566   39.3598   68.2484 F   0  0  0  0  0  0  0  0  0  0  0  0
   30.3258   41.4666   67.5725 F   0  0  0  0  0  0  0  0  0  0  0  0
   31.2210   39.3773   65.6927 C   0  0  0  0  0  0  0  0  0  0  0  0
   31.5767   38.8886   64.4510 C   0  0  0  0  0  0  0  0  0  0  0  0
   31.8297   36.5502   60.7270 C   0  0  0  0  0  0  0  0  0  0  0  0
   31.7147   35.1959   60.4470 C   0  0  0  0  0  0  0  0  0  0  0  0
   32.0627   34.6974   59.1986 C   0  0  0  0  0  0  0  0  0  0  0  0
   32.5353   35.5203   58.2193 C   0  0  0  0  0  0  0  0  0  0  0  0
   32.6722   36.8968   58.4617 C   0  0  0  0  0  0  0  0  0  0  0  0
   33.1577   37.7688   57.4684 C   0  0  0  0  0  0  0  0  0  0  0  0
   33.2657   39.0964   57.7728 C   0  0  0  0  0  0  0  0  0  0  0  0
   32.8997   39.5507   59.0370 C   0  0  0  0  0  0  0  0  0  0  0  0
   32.4482   38.7337   59.9594 N   0  0  0  0  0  0  0  0  0  0  0  0
   32.3186   37.4273   59.7258 C   0  0  0  0  0  0  0  0  0  0  0  0
   30.9026   38.8937   61.3917 H   0  0  0  0  0  0  0  0  0  0  0  0
   28.5948   39.2025   62.8837 H   0  0  0  0  0  0  0  0  0  0  0  0
   27.9717   40.0715   65.1003 H   0  0  0  0  0  0  0  0  0  0  0  0
   31.9552   39.4282   66.4831 H   0  0  0  0  0  0  0  0  0  0  0  0
   32.5886   38.5569   64.2703 H   0  0  0  0  0  0  0  0  0  0  0  0
   31.3471   34.5228   61.2074 H   0  0  0  0  0  0  0  0  0  0  0  0
   31.9614   33.6404   59.0013 H   0  0  0  0  0  0  0  0  0  0  0  0
   32.8042   35.1129   57.2560 H   0  0  0  0  0  0  0  0  0  0  0  0
   33.4371   37.3985   56.4932 H   0  0  0  0  0  0  0  0  0  0  0  0
   33.6348   39.7923   57.0340 H   0  0  0  0  0  0  0  0  0  0  0  0
   32.9904   40.6025   59.2646 H   0  0  0  0  0  0  0  0  0  0  0  0
  1  2  2  0  0  0  0
  2  3  1  0  0  0  0
  2 14  1  0  0  0  0
  3  4  1  0  0  0  0
  3 24  1  0  0  0  0
  4 13  2  0  0  0  0
  4  5  1  0  0  0  0
  5  6  2  0  0  0  0
  5 25  1  0  0  0  0
  6  7  1  0  0  0  0
  6 26  1  0  0  0  0
  7  8  1  0  0  0  0
  7 12  2  0  0  0  0
  8  9  1  0  0  0  0
  8 10  1  0  0  0  0
  8 11  1  0  0  0  0
 12 13  1  0  0  0  0
 12 27  1  0  0  0  0
 13 28  1  0  0  0  0
 14 23  2  0  0  0  0
 14 15  1  0  0  0  0
 15 16  2  0  0  0  0
 15 29  1  0  0  0  0
 16 17  1  0  0  0  0
 16 30  1  0  0  0  0
 17 18  2  0  0  0  0
 17 31  1  0  0  0  0
 18 23  1  0  0  0  0
 18 19  1  0  0  0  0
 19 20  2  0  0  0  0
 19 32  1  0  0  0  0
 20 21  1  0  0  0  0
 20 33  1  0  0  0  0
 21 22  2  0  0  0  0
 21 34  1  0  0  0  0
 22 23  1  0  0  0  0
M  END
$$$$
