ZINC000000033129      none
 OpenBabel11202420153D

 50 52  0  0  1  0  0  0  0  0999 V2000
   33.6060   37.7019   55.9500 C   0  0  0  0  0  0  0  0  0  0  0  0
   33.0883   37.8479   57.3577 C   0  0  0  0  0  0  0  0  0  0  0  0
   32.3829   36.8125   57.9440 C   0  0  0  0  0  0  0  0  0  0  0  0
   31.9069   36.9429   59.2339 C   0  0  0  0  0  0  0  0  0  0  0  0
   32.1365   38.1152   59.9420 C   0  0  0  0  0  0  0  0  0  0  0  0
   31.6550   38.2506   61.2488 N   0  0  0  0  0  0  0  0  0  0  0  0
   30.5302   37.6089   61.6225 C   0  0  0  0  0  0  0  0  0  0  0  0
   29.9354   36.9142   60.8260 O   0  0  0  0  0  0  0  0  0  0  0  0
   30.0117   37.7546   63.0299 C   0  0  2  0  0  0  0  0  0  0  0  0
   29.1003   37.1683   63.1472 H   0  0  0  0  0  0  0  0  0  0  0  0
   29.7175   39.2271   63.3245 C   0  0  0  0  0  0  0  0  0  0  0  0
   29.4543   39.4185   64.7895 C   0  0  0  0  0  0  0  0  0  0  0  0
   29.7787   38.5605   65.7029 C   0  0  0  0  0  0  0  0  0  0  0  0
   30.4543   37.2500   65.4234 C   0  0  0  0  0  0  0  0  0  0  0  0
   31.0722   37.2635   64.0235 C   0  0  1  0  0  0  0  0  0  0  0  0
   31.9305   37.9349   64.0049 H   0  0  0  0  0  0  0  0  0  0  0  0
   31.5102   35.8708   63.6497 C   0  0  0  0  0  0  0  0  0  0  0  0
   32.6335   35.5031   63.9000 O   0  0  0  0  0  0  0  0  0  0  0  0
   30.6522   35.0390   63.0384 O   0  0  0  0  0  0  0  0  0  0  0  0
   30.8209   33.6185   63.2875 C   0  0  0  0  0  0  0  0  0  0  0  0
   29.9868   33.2113   64.5038 C   0  0  2  0  0  0  0  0  0  0  0  0
   30.1006   32.1465   64.7067 H   0  0  0  0  0  0  0  0  0  0  0  0
   28.4944   33.5691   64.2867 C   0  0  0  0  0  0  0  0  0  0  0  0
   27.9759   33.6926   65.7402 C   0  0  0  0  0  0  0  0  0  0  0  0
   29.2478   33.9349   66.5757 C   0  0  0  0  0  0  0  0  0  0  0  0
   30.3576   33.9904   65.6638 O   0  0  0  0  0  0  0  0  0  0  0  0
   32.8399   39.1550   59.3483 C   0  0  0  0  0  0  0  0  0  0  0  0
   33.3183   39.0162   58.0602 C   0  0  0  0  0  0  0  0  0  0  0  0
   32.8533   38.0587   55.2472 H   0  0  0  0  0  0  0  0  0  0  0  0
   34.5173   38.2891   55.8357 H   0  0  0  0  0  0  0  0  0  0  0  0
   33.8223   36.6527   55.7493 H   0  0  0  0  0  0  0  0  0  0  0  0
   32.2047   35.9011   57.3927 H   0  0  0  0  0  0  0  0  0  0  0  0
   31.3569   36.1338   59.6915 H   0  0  0  0  0  0  0  0  0  0  0  0
   32.1307   38.8064   61.8858 H   0  0  0  0  0  0  0  0  0  0  0  0
   30.5742   39.8328   63.0292 H   0  0  0  0  0  0  0  0  0  0  0  0
   28.8408   39.5407   62.7580 H   0  0  0  0  0  0  0  0  0  0  0  0
   28.9639   40.3289   65.1012 H   0  0  0  0  0  0  0  0  0  0  0  0
   29.5492   38.8031   66.7299 H   0  0  0  0  0  0  0  0  0  0  0  0
   29.7220   36.4451   65.4875 H   0  0  0  0  0  0  0  0  0  0  0  0
   31.2377   37.0826   66.1626 H   0  0  0  0  0  0  0  0  0  0  0  0
   31.8724   33.4057   63.4803 H   0  0  0  0  0  0  0  0  0  0  0  0
   30.4903   33.0548   62.4149 H   0  0  0  0  0  0  0  0  0  0  0  0
   27.9762   32.7708   63.7555 H   0  0  0  0  0  0  0  0  0  0  0  0
   28.3940   34.5160   63.7562 H   0  0  0  0  0  0  0  0  0  0  0  0
   27.4859   32.7696   66.0502 H   0  0  0  0  0  0  0  0  0  0  0  0
   27.2930   34.5373   65.8312 H   0  0  0  0  0  0  0  0  0  0  0  0
   29.1632   34.8787   67.1144 H   0  0  0  0  0  0  0  0  0  0  0  0
   29.3890   33.1166   67.2818 H   0  0  0  0  0  0  0  0  0  0  0  0
   33.0166   40.0696   59.8949 H   0  0  0  0  0  0  0  0  0  0  0  0
   33.8693   39.8228   57.5994 H   0  0  0  0  0  0  0  0  0  0  0  0
  1  2  1  0  0  0  0
  1 29  1  0  0  0  0
  1 30  1  0  0  0  0
  1 31  1  0  0  0  0
  2 28  2  0  0  0  0
  2  3  1  0  0  0  0
  3  4  2  0  0  0  0
  3 32  1  0  0  0  0
  4  5  1  0  0  0  0
  4 33  1  0  0  0  0
  5  6  1  0  0  0  0
  5 27  2  0  0  0  0
  6  7  1  0  0  0  0
  6 34  1  0  0  0  0
  7  8  2  0  0  0  0
  7  9  1  0  0  0  0
  9 10  1  1  0  0  0
  9 15  1  0  0  0  0
  9 11  1  0  0  0  0
 11 12  1  0  0  0  0
 11 35  1  0  0  0  0
 11 36  1  0  0  0  0
 12 13  2  0  0  0  0
 12 37  1  0  0  0  0
 13 14  1  0  0  0  0
 13 38  1  0  0  0  0
 14 15  1  0  0  0  0
 14 39  1  0  0  0  0
 14 40  1  0  0  0  0
 15 16  1  6  0  0  0
 15 17  1  0  0  0  0
 17 18  2  0  0  0  0
 17 19  1  0  0  0  0
 19 20  1  0  0  0  0
 20 21  1  0  0  0  0
 20 41  1  0  0  0  0
 20 42  1  0  0  0  0
 21 22  1  1  0  0  0
 21 26  1  0  0  0  0
 21 23  1  0  0  0  0
 23 24  1  0  0  0  0
 23 43  1  0  0  0  0
 23 44  1  0  0  0  0
 24 25  1  0  0  0  0
 24 45  1  0  0  0  0
 24 46  1  0  0  0  0
 25 26  1  0  0  0  0
 25 47  1  0  0  0  0
 25 48  1  0  0  0  0
 27 28  1  0  0  0  0
 27 49  1  0  0  0  0
 28 50  1  0  0  0  0
M  END
$$$$
