ZINC000000034203      none
 OpenBabel11202420153D

 45 47  0  0  0  0  0  0  0  0999 V2000
   32.0534   36.0158   52.7634 C   0  0  0  0  0  0  0  0  0  0  0  0
   33.3992   36.0543   53.4404 C   0  0  0  0  0  0  0  0  0  0  0  0
   34.4400   37.0476   52.9920 C   0  0  0  0  0  0  0  0  0  0  0  0
   33.6642   35.2244   54.4187 C   0  0  0  0  0  0  0  0  0  0  0  0
   32.5818   34.3253   54.9582 C   0  0  0  0  0  0  0  0  0  0  0  0
   32.8433   34.0444   56.4394 C   0  0  0  0  0  0  0  0  0  0  0  0
   32.8454   35.3429   57.2041 C   0  0  0  0  0  0  0  0  0  0  0  0
   32.4376   35.3442   58.5362 C   0  0  0  0  0  0  0  0  0  0  0  0
   32.4353   36.5349   59.2512 C   0  0  0  0  0  0  0  0  0  0  0  0
   32.0097   36.5754   60.6664 C   0  0  0  0  0  0  0  0  0  0  0  0
   32.6031   35.9178   61.4984 O   0  0  0  0  0  0  0  0  0  0  0  0
   30.9636   37.3417   61.0338 N   0  0  0  0  0  0  0  0  0  0  0  0
   30.5660   37.3796   62.3560 C   0  0  0  0  0  0  0  0  0  0  0  0
   31.1179   36.7222   63.3098 N   0  0  0  0  0  0  0  0  0  0  0  0
   30.6125   36.8488   64.6585 C   0  0  0  0  0  0  0  0  0  0  0  0
   29.4118   37.8064   64.7151 C   0  0  0  0  0  0  0  0  0  0  0  0
   29.2172   38.3349   62.9822 S   0  0  0  0  0  0  0  0  0  0  0  0
   32.8545   37.7110   58.5779 C   0  0  0  0  0  0  0  0  0  0  0  0
   32.8803   38.9525   59.2263 C   0  0  0  0  0  0  0  0  0  0  0  0
   33.2834   40.0608   58.5440 C   0  0  0  0  0  0  0  0  0  0  0  0
   33.6825   39.9735   57.2117 C   0  0  0  0  0  0  0  0  0  0  0  0
   33.6692   38.7838   56.5517 C   0  0  0  0  0  0  0  0  0  0  0  0
   33.2531   37.6185   57.2217 C   0  0  0  0  0  0  0  0  0  0  0  0
   33.2300   36.4380   56.5973 N   0  0  0  0  0  0  0  0  0  0  0  0
   31.3428   36.6148   53.3329 H   0  0  0  0  0  0  0  0  0  0  0  0
   32.1423   36.4192   51.7547 H   0  0  0  0  0  0  0  0  0  0  0  0
   31.7015   34.9853   52.7128 H   0  0  0  0  0  0  0  0  0  0  0  0
   35.0515   36.6036   52.2065 H   0  0  0  0  0  0  0  0  0  0  0  0
   33.9479   37.9412   52.6081 H   0  0  0  0  0  0  0  0  0  0  0  0
   35.0736   37.3164   53.8373 H   0  0  0  0  0  0  0  0  0  0  0  0
   34.6585   35.1845   54.8384 H   0  0  0  0  0  0  0  0  0  0  0  0
   32.5803   33.3862   54.4051 H   0  0  0  0  0  0  0  0  0  0  0  0
   31.6141   34.8143   54.8465 H   0  0  0  0  0  0  0  0  0  0  0  0
   33.8111   33.5553   56.5511 H   0  0  0  0  0  0  0  0  0  0  0  0
   32.0604   33.3942   56.8296 H   0  0  0  0  0  0  0  0  0  0  0  0
   32.1261   34.4251   59.0101 H   0  0  0  0  0  0  0  0  0  0  0  0
   30.4900   37.8666   60.3697 H   0  0  0  0  0  0  0  0  0  0  0  0
   31.4029   37.2283   65.3060 H   0  0  0  0  0  0  0  0  0  0  0  0
   30.3023   35.8656   65.0125 H   0  0  0  0  0  0  0  0  0  0  0  0
   29.6310   38.6608   65.3555 H   0  0  0  0  0  0  0  0  0  0  0  0
   28.5195   37.2844   65.0605 H   0  0  0  0  0  0  0  0  0  0  0  0
   32.5781   39.0315   60.2602 H   0  0  0  0  0  0  0  0  0  0  0  0
   33.2987   41.0183   59.0435 H   0  0  0  0  0  0  0  0  0  0  0  0
   34.0028   40.8653   56.6934 H   0  0  0  0  0  0  0  0  0  0  0  0
   33.9772   38.7339   55.5178 H   0  0  0  0  0  0  0  0  0  0  0  0
  1  2  1  0  0  0  0
  1 25  1  0  0  0  0
  1 26  1  0  0  0  0
  1 27  1  0  0  0  0
  2  3  1  0  0  0  0
  2  4  2  0  0  0  0
  3 28  1  0  0  0  0
  3 29  1  0  0  0  0
  3 30  1  0  0  0  0
  4  5  1  0  0  0  0
  4 31  1  0  0  0  0
  5  6  1  0  0  0  0
  5 32  1  0  0  0  0
  5 33  1  0  0  0  0
  6  7  1  0  0  0  0
  6 34  1  0  0  0  0
  6 35  1  0  0  0  0
  7 24  2  0  0  0  0
  7  8  1  0  0  0  0
  8  9  2  0  0  0  0
  8 36  1  0  0  0  0
  9 10  1  0  0  0  0
  9 18  1  0  0  0  0
 10 11  2  0  0  0  0
 10 12  1  0  0  0  0
 12 13  1  0  0  0  0
 12 37  1  0  0  0  0
 13 17  1  0  0  0  0
 13 14  2  0  0  0  0
 14 15  1  0  0  0  0
 15 16  1  0  0  0  0
 15 38  1  0  0  0  0
 15 39  1  0  0  0  0
 16 17  1  0  0  0  0
 16 40  1  0  0  0  0
 16 41  1  0  0  0  0
 18 23  2  0  0  0  0
 18 19  1  0  0  0  0
 19 20  2  0  0  0  0
 19 42  1  0  0  0  0
 20 21  1  0  0  0  0
 20 43  1  0  0  0  0
 21 22  2  0  0  0  0
 21 44  1  0  0  0  0
 22 23  1  0  0  0  0
 22 45  1  0  0  0  0
 23 24  1  0  0  0  0
M  END
$$$$
