ZINC000000052919      none
 OpenBabel11202420153D

 26 28  0  0  0  0  0  0  0  0999 V2000
   32.3678   38.7188   60.4551 N   0  0  0  0  0  0  0  0  0  0  0  0
   32.5154   37.7156   59.5172 C   0  0  0  0  0  0  0  0  0  0  0  0
   32.2271   36.3697   59.6783 C   0  0  0  0  0  0  0  0  0  0  0  0
   31.7246   35.7797   60.8485 C   0  0  0  0  0  0  0  0  0  0  0  0
   31.5077   36.4641   61.8295 O   0  0  0  0  0  0  0  0  0  0  0  0
   31.4539   34.2977   60.8889 C   0  0  0  0  0  0  0  0  0  0  0  0
   32.4463   33.3785   60.1741 C   0  0  0  0  0  0  0  0  0  0  0  0
   31.0573   33.6160   59.5779 C   0  0  0  0  0  0  0  0  0  0  0  0
   32.5076   35.7149   58.5278 O   0  0  0  0  0  0  0  0  0  0  0  0
   32.9713   36.5624   57.5870 C   0  0  0  0  0  0  0  0  0  0  0  0
   33.3932   36.3750   56.2752 C   0  0  0  0  0  0  0  0  0  0  0  0
   33.8332   37.4484   55.5319 C   0  0  0  0  0  0  0  0  0  0  0  0
   33.8673   38.7245   56.0796 C   0  0  0  0  0  0  0  0  0  0  0  0
   34.4263   40.0615   55.1238 Cl  0  0  0  0  0  0  0  0  0  0  0  0
   33.4586   38.9324   57.3786 C   0  0  0  0  0  0  0  0  0  0  0  0
   33.0102   37.8531   58.1420 C   0  0  0  0  0  0  0  0  0  0  0  0
   32.6034   39.6323   60.2295 H   0  0  0  0  0  0  0  0  0  0  0  0
   32.0284   38.5098   61.3395 H   0  0  0  0  0  0  0  0  0  0  0  0
   30.9965   33.9283   61.8068 H   0  0  0  0  0  0  0  0  0  0  0  0
   33.2950   33.8457   59.6745 H   0  0  0  0  0  0  0  0  0  0  0  0
   32.6421   32.4041   60.6215 H   0  0  0  0  0  0  0  0  0  0  0  0
   30.3394   32.7978   59.6331 H   0  0  0  0  0  0  0  0  0  0  0  0
   30.9924   34.2394   58.6860 H   0  0  0  0  0  0  0  0  0  0  0  0
   33.3717   35.3880   55.8372 H   0  0  0  0  0  0  0  0  0  0  0  0
   34.1555   37.2959   54.5125 H   0  0  0  0  0  0  0  0  0  0  0  0
   33.4846   39.9248   57.8039 H   0  0  0  0  0  0  0  0  0  0  0  0
  1  2  1  0  0  0  0
  1 17  1  0  0  0  0
  1 18  1  0  0  0  0
  2 16  1  0  0  0  0
  2  3  2  0  0  0  0
  3  4  1  0  0  0  0
  3  9  1  0  0  0  0
  4  5  2  0  0  0  0
  4  6  1  0  0  0  0
  6  8  1  0  0  0  0
  6  7  1  0  0  0  0
  6 19  1  0  0  0  0
  7  8  1  0  0  0  0
  7 20  1  0  0  0  0
  7 21  1  0  0  0  0
  8 22  1  0  0  0  0
  8 23  1  0  0  0  0
  9 10  1  0  0  0  0
 10 16  2  0  0  0  0
 10 11  1  0  0  0  0
 11 12  2  0  0  0  0
 11 24  1  0  0  0  0
 12 13  1  0  0  0  0
 12 25  1  0  0  0  0
 13 14  1  0  0  0  0
 13 15  2  0  0  0  0
 15 16  1  0  0  0  0
 15 26  1  0  0  0  0
M  END
$$$$
