ZINC000000053332      none
 OpenBabel11202420153D

 34 35  0  0  1  0  0  0  0  0999 V2000
   29.2619   31.3050   66.0868 C   0  0  0  0  0  0  0  0  0  0  0  0
   29.0044   32.4177   65.0687 C   0  0  0  0  0  0  0  0  0  0  0  0
   29.9431   33.5031   65.2903 O   0  0  0  0  0  0  0  0  0  0  0  0
   29.8498   34.5686   64.4718 C   0  0  0  0  0  0  0  0  0  0  0  0
   29.0071   34.5905   63.5966 O   0  0  0  0  0  0  0  0  0  0  0  0
   30.6911   35.6106   64.6235 N   0  0  0  0  0  0  0  0  0  0  0  0
   31.6968   35.7094   65.5830 N   0  0  0  0  0  0  0  0  0  0  0  0
   32.3663   36.7873   65.5347 C   0  0  0  0  0  0  0  0  0  0  0  0
   33.5051   37.1424   66.4554 C   0  0  0  0  0  0  0  0  0  0  0  0
   31.8489   37.6606   64.4139 C   0  0  0  0  0  0  0  0  0  0  0  0
   30.7001   36.8330   63.8029 C   0  0  2  0  0  0  0  0  0  0  0  0
   29.4587   37.5311   63.9189 O   0  0  0  0  0  0  0  0  0  0  0  0
   30.9903   36.5036   62.3613 C   0  0  0  0  0  0  0  0  0  0  0  0
   31.7780   35.4121   62.0467 C   0  0  0  0  0  0  0  0  0  0  0  0
   32.0438   35.1097   60.7243 C   0  0  0  0  0  0  0  0  0  0  0  0
   31.5219   35.8988   59.7165 C   0  0  0  0  0  0  0  0  0  0  0  0
   30.7353   36.9912   60.0311 C   0  0  0  0  0  0  0  0  0  0  0  0
   30.4692   37.2933   61.3535 C   0  0  0  0  0  0  0  0  0  0  0  0
   28.5573   30.4902   65.9205 H   0  0  0  0  0  0  0  0  0  0  0  0
   30.2803   30.9343   65.9700 H   0  0  0  0  0  0  0  0  0  0  0  0
   29.1317   31.6980   67.0950 H   0  0  0  0  0  0  0  0  0  0  0  0
   27.9861   32.7885   65.1854 H   0  0  0  0  0  0  0  0  0  0  0  0
   29.1348   32.0248   64.0603 H   0  0  0  0  0  0  0  0  0  0  0  0
   33.1168   37.6692   67.3272 H   0  0  0  0  0  0  0  0  0  0  0  0
   34.0104   36.2316   66.7766 H   0  0  0  0  0  0  0  0  0  0  0  0
   34.2119   37.7834   65.9287 H   0  0  0  0  0  0  0  0  0  0  0  0
   32.6298   37.8363   63.6740 H   0  0  0  0  0  0  0  0  0  0  0  0
   31.4736   38.6064   64.8048 H   0  0  0  0  0  0  0  0  0  0  0  0
   29.4349   38.3729   63.4434 H   0  0  0  0  0  0  0  0  0  0  0  0
   32.1854   34.7953   62.8341 H   0  0  0  0  0  0  0  0  0  0  0  0
   32.6629   34.2595   60.4786 H   0  0  0  0  0  0  0  0  0  0  0  0
   31.7298   35.6628   58.6833 H   0  0  0  0  0  0  0  0  0  0  0  0
   30.3279   37.6079   59.2437 H   0  0  0  0  0  0  0  0  0  0  0  0
   29.8537   38.1461   61.5992 H   0  0  0  0  0  0  0  0  0  0  0  0
  1  2  1  0  0  0  0
  1 19  1  0  0  0  0
  1 20  1  0  0  0  0
  1 21  1  0  0  0  0
  2  3  1  0  0  0  0
  2 22  1  0  0  0  0
  2 23  1  0  0  0  0
  3  4  1  0  0  0  0
  4  5  2  0  0  0  0
  4  6  1  0  0  0  0
  6 11  1  0  0  0  0
  6  7  1  0  0  0  0
  7  8  2  0  0  0  0
  8  9  1  0  0  0  0
  8 10  1  0  0  0  0
  9 24  1  0  0  0  0
  9 25  1  0  0  0  0
  9 26  1  0  0  0  0
 10 11  1  0  0  0  0
 10 27  1  0  0  0  0
 10 28  1  0  0  0  0
 11 12  1  1  0  0  0
 11 13  1  0  0  0  0
 12 29  1  0  0  0  0
 13 18  2  0  0  0  0
 13 14  1  0  0  0  0
 14 15  2  0  0  0  0
 14 30  1  0  0  0  0
 15 16  1  0  0  0  0
 15 31  1  0  0  0  0
 16 17  2  0  0  0  0
 16 32  1  0  0  0  0
 17 18  1  0  0  0  0
 17 33  1  0  0  0  0
 18 34  1  0  0  0  0
M  END
$$$$
