ZINC000000036898      none
 OpenBabel11202420153D

 51 54  0  0  1  0  0  0  0  0999 V2000
   26.3429   40.1381   67.5702 C   0  0  0  0  0  0  0  0  0  0  0  0
   27.6376   40.6821   68.1170 C   0  0  0  0  0  0  0  0  0  0  0  0
   27.8147   41.1610   69.3864 N   0  0  0  0  0  0  0  0  0  0  0  0
   27.1256   41.2010   70.0680 H   0  0  0  0  0  0  0  0  0  0  0  0
   29.1162   41.5783   69.5521 C   0  0  0  0  0  0  0  0  0  0  0  0
   29.8158   42.1332   70.6190 C   0  0  0  0  0  0  0  0  0  0  0  0
   31.1476   42.4524   70.4718 C   0  0  0  0  0  0  0  0  0  0  0  0
   31.8014   42.2257   69.2682 C   0  0  0  0  0  0  0  0  0  0  0  0
   31.1336   41.6818   68.2075 C   0  0  0  0  0  0  0  0  0  0  0  0
   29.7830   41.3511   68.3345 C   0  0  0  0  0  0  0  0  0  0  0  0
   28.7881   40.7689   67.4307 C   0  0  0  0  0  0  0  0  0  0  0  0
   29.0130   40.3481   66.0012 C   0  0  0  0  0  0  0  0  0  0  0  0
   29.4554   38.8839   65.9642 C   0  0  0  0  0  0  0  0  0  0  0  0
   29.6741   38.4749   64.5745 N   0  0  0  0  0  0  0  0  0  0  0  0
   29.0297   38.9659   63.5062 C   0  0  0  0  0  0  0  0  0  0  0  0
   28.1741   39.8252   63.5848 O   0  0  0  0  0  0  0  0  0  0  0  0
   29.4188   38.4256   62.3443 O   0  0  0  0  0  0  0  0  0  0  0  0
   30.4465   37.4308   62.5975 C   0  0  0  0  0  0  0  0  0  0  0  0
   29.9818   36.0506   62.1449 C   0  0  0  0  0  0  0  0  0  0  0  0
   29.7840   36.0482   60.6270 C   0  0  0  0  0  0  0  0  0  0  0  0
   31.1032   36.4098   59.9413 C   0  0  0  0  0  0  0  0  0  0  0  0
   31.5444   37.8054   60.3866 C   0  0  0  0  0  0  0  0  0  0  0  0
   31.7492   37.8148   61.9035 C   0  0  0  0  0  0  0  0  0  0  0  0
   30.6327   37.4530   64.1233 C   0  0  2  0  0  0  0  0  0  0  0  0
   30.2900   36.0895   64.7271 C   0  0  0  0  0  0  0  0  0  0  0  0
   31.9684   37.8325   64.4613 O   0  0  0  0  0  0  0  0  0  0  0  0
   25.7698   40.9485   67.1198 H   0  0  0  0  0  0  0  0  0  0  0  0
   26.5568   39.3814   66.8153 H   0  0  0  0  0  0  0  0  0  0  0  0
   25.7659   39.6911   68.3797 H   0  0  0  0  0  0  0  0  0  0  0  0
   29.3164   42.3127   71.5596 H   0  0  0  0  0  0  0  0  0  0  0  0
   31.6890   42.8831   71.3012 H   0  0  0  0  0  0  0  0  0  0  0  0
   32.8449   42.4856   69.1679 H   0  0  0  0  0  0  0  0  0  0  0  0
   31.6485   41.5086   67.2741 H   0  0  0  0  0  0  0  0  0  0  0  0
   28.0864   40.4621   65.4388 H   0  0  0  0  0  0  0  0  0  0  0  0
   29.7874   40.9729   65.5560 H   0  0  0  0  0  0  0  0  0  0  0  0
   30.3822   38.7700   66.5266 H   0  0  0  0  0  0  0  0  0  0  0  0
   28.6811   38.2591   66.4092 H   0  0  0  0  0  0  0  0  0  0  0  0
   30.7332   35.3083   62.4141 H   0  0  0  0  0  0  0  0  0  0  0  0
   29.0391   35.8063   62.6342 H   0  0  0  0  0  0  0  0  0  0  0  0
   29.0222   36.7803   60.3586 H   0  0  0  0  0  0  0  0  0  0  0  0
   29.4658   35.0571   60.3035 H   0  0  0  0  0  0  0  0  0  0  0  0
   30.9651   36.4001   58.8601 H   0  0  0  0  0  0  0  0  0  0  0  0
   31.8668   35.6823   60.2164 H   0  0  0  0  0  0  0  0  0  0  0  0
   30.7771   38.5319   60.1189 H   0  0  0  0  0  0  0  0  0  0  0  0
   32.4801   38.0660   59.8920 H   0  0  0  0  0  0  0  0  0  0  0  0
   32.0502   38.8126   62.2230 H   0  0  0  0  0  0  0  0  0  0  0  0
   32.5269   37.0989   62.1693 H   0  0  0  0  0  0  0  0  0  0  0  0
   29.2781   35.8075   64.4365 H   0  0  0  0  0  0  0  0  0  0  0  0
   30.9947   35.3427   64.3612 H   0  0  0  0  0  0  0  0  0  0  0  0
   30.3533   36.1472   65.8138 H   0  0  0  0  0  0  0  0  0  0  0  0
   32.1219   37.9271   65.4113 H   0  0  0  0  0  0  0  0  0  0  0  0
  1  2  1  0  0  0  0
  1 27  1  0  0  0  0
  1 28  1  0  0  0  0
  1 29  1  0  0  0  0
  2 11  2  0  0  0  0
  2  3  1  0  0  0  0
  3  4  1  0  0  0  0
  3  5  1  0  0  0  0
  5 10  2  0  0  0  0
  5  6  1  0  0  0  0
  6  7  2  0  0  0  0
  6 30  1  0  0  0  0
  7  8  1  0  0  0  0
  7 31  1  0  0  0  0
  8  9  2  0  0  0  0
  8 32  1  0  0  0  0
  9 10  1  0  0  0  0
  9 33  1  0  0  0  0
 10 11  1  0  0  0  0
 11 12  1  0  0  0  0
 12 13  1  0  0  0  0
 12 34  1  0  0  0  0
 12 35  1  0  0  0  0
 13 14  1  0  0  0  0
 13 36  1  0  0  0  0
 13 37  1  0  0  0  0
 14 24  1  0  0  0  0
 14 15  1  0  0  0  0
 15 16  2  0  0  0  0
 15 17  1  0  0  0  0
 17 18  1  0  0  0  0
 18 23  1  0  0  0  0
 18 19  1  0  0  0  0
 18 24  1  0  0  0  0
 19 20  1  0  0  0  0
 19 38  1  0  0  0  0
 19 39  1  0  0  0  0
 20 21  1  0  0  0  0
 20 40  1  0  0  0  0
 20 41  1  0  0  0  0
 21 22  1  0  0  0  0
 21 42  1  0  0  0  0
 21 43  1  0  0  0  0
 22 23  1  0  0  0  0
 22 44  1  0  0  0  0
 22 45  1  0  0  0  0
 23 46  1  0  0  0  0
 23 47  1  0  0  0  0
 24 25  1  0  0  0  0
 24 26  1  1  0  0  0
 25 48  1  0  0  0  0
 25 49  1  0  0  0  0
 25 50  1  0  0  0  0
 26 51  1  0  0  0  0
M  END
$$$$
