ZINC000000036988      none
 OpenBabel11202420153D

 40 43  0  0  0  0  0  0  0  0999 V2000
   31.4345   38.4559   66.4124 C   0  0  0  0  0  0  0  0  0  0  0  0
   32.1696   38.4469   65.0706 C   0  0  0  0  0  0  0  0  0  0  0  0
   31.5058   37.4642   64.1408 C   0  0  0  0  0  0  0  0  0  0  0  0
   32.1435   36.7399   63.1344 C   0  0  0  0  0  0  0  0  0  0  0  0
   31.1910   35.9573   62.5146 C   0  0  0  0  0  0  0  0  0  0  0  0
   31.4155   35.0286   61.3940 C   0  0  0  0  0  0  0  0  0  0  0  0
   31.1846   33.7337   61.3944 N   0  0  0  0  0  0  0  0  0  0  0  0
   31.4927   33.2347   60.2518 N   0  0  0  0  0  0  0  0  0  0  0  0
   31.9402   34.1886   59.4527 C   0  0  0  0  0  0  0  0  0  0  0  0
   32.5583   34.4971   57.8333 S   0  0  0  0  0  0  0  0  0  0  0  0
   32.7350   36.2068   58.2020 C   0  0  0  0  0  0  0  0  0  0  0  0
   33.2442   37.2275   57.2600 C   0  0  0  0  0  0  0  0  0  0  0  0
   34.0080   36.8426   56.1575 C   0  0  0  0  0  0  0  0  0  0  0  0
   34.4760   37.7959   55.2787 C   0  0  0  0  0  0  0  0  0  0  0  0
   34.1977   39.1392   55.4959 C   0  0  0  0  0  0  0  0  0  0  0  0
   34.6656   40.0764   54.6311 O   0  0  0  0  0  0  0  0  0  0  0  0
   35.4343   39.6088   53.5211 C   0  0  0  0  0  0  0  0  0  0  0  0
   33.4429   39.5264   56.5955 C   0  0  0  0  0  0  0  0  0  0  0  0
   32.9668   38.5781   57.4753 C   0  0  0  0  0  0  0  0  0  0  0  0
   32.3577   36.4421   59.4082 N   0  0  0  0  0  0  0  0  0  0  0  0
   31.9042   35.3558   60.1391 N   0  0  0  0  0  0  0  0  0  0  0  0
   30.0015   36.2060   63.1365 N   0  0  0  0  0  0  0  0  0  0  0  0
   28.7111   35.5949   62.8082 C   0  0  0  0  0  0  0  0  0  0  0  0
   30.2364   37.1455   64.1480 N   0  0  0  0  0  0  0  0  0  0  0  0
   31.9145   39.1667   67.0851 H   0  0  0  0  0  0  0  0  0  0  0  0
   30.3962   38.7482   66.2560 H   0  0  0  0  0  0  0  0  0  0  0  0
   31.4691   37.4592   66.8523 H   0  0  0  0  0  0  0  0  0  0  0  0
   33.2079   38.1546   65.2272 H   0  0  0  0  0  0  0  0  0  0  0  0
   32.1350   39.4436   64.6307 H   0  0  0  0  0  0  0  0  0  0  0  0
   33.1934   36.7833   62.8853 H   0  0  0  0  0  0  0  0  0  0  0  0
   34.2286   35.7986   55.9905 H   0  0  0  0  0  0  0  0  0  0  0  0
   35.0636   37.4984   54.4228 H   0  0  0  0  0  0  0  0  0  0  0  0
   35.7447   40.4571   52.9110 H   0  0  0  0  0  0  0  0  0  0  0  0
   36.3159   39.0821   53.8864 H   0  0  0  0  0  0  0  0  0  0  0  0
   34.8292   38.9307   52.9195 H   0  0  0  0  0  0  0  0  0  0  0  0
   33.2289   40.5719   56.7616 H   0  0  0  0  0  0  0  0  0  0  0  0
   32.3794   38.8799   58.3299 H   0  0  0  0  0  0  0  0  0  0  0  0
   28.6225   34.6361   63.3192 H   0  0  0  0  0  0  0  0  0  0  0  0
   27.9046   36.2539   63.1299 H   0  0  0  0  0  0  0  0  0  0  0  0
   28.6459   35.4400   61.7312 H   0  0  0  0  0  0  0  0  0  0  0  0
  1  2  1  0  0  0  0
  1 25  1  0  0  0  0
  1 26  1  0  0  0  0
  1 27  1  0  0  0  0
  2  3  1  0  0  0  0
  2 28  1  0  0  0  0
  2 29  1  0  0  0  0
  3 24  2  0  0  0  0
  3  4  1  0  0  0  0
  4  5  2  0  0  0  0
  4 30  1  0  0  0  0
  5  6  1  0  0  0  0
  5 22  1  0  0  0  0
  6 21  1  0  0  0  0
  6  7  2  0  0  0  0
  7  8  1  0  0  0  0
  8  9  2  0  0  0  0
  9 21  1  0  0  0  0
  9 10  1  0  0  0  0
 10 11  1  0  0  0  0
 11 12  1  0  0  0  0
 11 20  2  0  0  0  0
 12 19  2  0  0  0  0
 12 13  1  0  0  0  0
 13 14  2  0  0  0  0
 13 31  1  0  0  0  0
 14 15  1  0  0  0  0
 14 32  1  0  0  0  0
 15 16  1  0  0  0  0
 15 18  2  0  0  0  0
 16 17  1  0  0  0  0
 17 33  1  0  0  0  0
 17 34  1  0  0  0  0
 17 35  1  0  0  0  0
 18 19  1  0  0  0  0
 18 36  1  0  0  0  0
 19 37  1  0  0  0  0
 20 21  1  0  0  0  0
 22 23  1  0  0  0  0
 22 24  1  0  0  0  0
 23 38  1  0  0  0  0
 23 39  1  0  0  0  0
 23 40  1  0  0  0  0
M  END
$$$$
