ZINC000000048956      none
 OpenBabel11202420153D

 47 49  0  0  0  0  0  0  0  0999 V2000
   30.0188   32.8655   67.6770 C   0  0  0  0  0  0  0  0  0  0  0  0
   29.4122   33.6635   66.5209 C   0  0  0  0  0  0  0  0  0  0  0  0
   30.0944   34.9400   66.4037 O   0  0  0  0  0  0  0  0  0  0  0  0
   29.6772   35.7696   65.4256 C   0  0  0  0  0  0  0  0  0  0  0  0
   28.7677   35.4346   64.6908 O   0  0  0  0  0  0  0  0  0  0  0  0
   30.3198   37.0748   65.2481 C   0  0  0  0  0  0  0  0  0  0  0  0
   30.9819   37.5382   64.1217 C   0  0  0  0  0  0  0  0  0  0  0  0
   31.1639   36.7833   62.8676 C   0  0  0  0  0  0  0  0  0  0  0  0
   30.6482   37.2805   61.6678 C   0  0  0  0  0  0  0  0  0  0  0  0
   30.8269   36.5718   60.4982 C   0  0  0  0  0  0  0  0  0  0  0  0
   31.5049   35.3654   60.5130 C   0  0  0  0  0  0  0  0  0  0  0  0
   32.0137   34.8644   61.6983 C   0  0  0  0  0  0  0  0  0  0  0  0
   31.8478   35.5649   62.8747 C   0  0  0  0  0  0  0  0  0  0  0  0
   31.4317   38.7817   64.3518 O   0  0  0  0  0  0  0  0  0  0  0  0
   31.1086   39.2017   65.5939 C   0  0  0  0  0  0  0  0  0  0  0  0
   31.3477   40.3875   66.2789 C   0  0  0  0  0  0  0  0  0  0  0  0
   30.8847   40.5468   67.5670 C   0  0  0  0  0  0  0  0  0  0  0  0
   30.1854   39.5243   68.2003 C   0  0  0  0  0  0  0  0  0  0  0  0
   29.7393   39.6937   69.4734 O   0  0  0  0  0  0  0  0  0  0  0  0
   29.9390   38.3379   67.5340 C   0  0  0  0  0  0  0  0  0  0  0  0
   29.1764   37.2304   68.2148 C   0  0  0  0  0  0  0  0  0  0  0  0
   28.0021   37.7914   68.8959 N   0  3  0  0  0  0  0  0  0  0  0  0
   28.3025   38.4652   69.5841 H   0  0  0  0  0  0  0  0  0  0  0  0
   27.1336   38.4506   67.9116 C   0  0  0  0  0  0  0  0  0  0  0  0
   27.2588   36.7119   69.5595 C   0  0  0  0  0  0  0  0  0  0  0  0
   30.3990   38.1728   66.2307 C   0  0  0  0  0  0  0  0  0  0  0  0
   31.0780   32.6951   67.4843 H   0  0  0  0  0  0  0  0  0  0  0  0
   29.9036   33.4255   68.6049 H   0  0  0  0  0  0  0  0  0  0  0  0
   29.5067   31.9073   67.7649 H   0  0  0  0  0  0  0  0  0  0  0  0
   28.3530   33.8339   66.7136 H   0  0  0  0  0  0  0  0  0  0  0  0
   29.5274   33.1035   65.5930 H   0  0  0  0  0  0  0  0  0  0  0  0
   30.1148   38.2194   61.6557 H   0  0  0  0  0  0  0  0  0  0  0  0
   30.4328   36.9570   59.5694 H   0  0  0  0  0  0  0  0  0  0  0  0
   31.6379   34.8125   59.5948 H   0  0  0  0  0  0  0  0  0  0  0  0
   32.5425   33.9226   61.7021 H   0  0  0  0  0  0  0  0  0  0  0  0
   32.2457   35.1728   63.7989 H   0  0  0  0  0  0  0  0  0  0  0  0
   31.8929   41.1867   65.7990 H   0  0  0  0  0  0  0  0  0  0  0  0
   31.0701   41.4726   68.0914 H   0  0  0  0  0  0  0  0  0  0  0  0
   29.9555   40.5557   69.8547 H   0  0  0  0  0  0  0  0  0  0  0  0
   28.8520   36.5024   67.4713 H   0  0  0  0  0  0  0  0  0  0  0  0
   29.8209   36.7412   68.9452 H   0  0  0  0  0  0  0  0  0  0  0  0
   26.8089   37.7226   67.1680 H   0  0  0  0  0  0  0  0  0  0  0  0
   26.2621   38.8669   68.4170 H   0  0  0  0  0  0  0  0  0  0  0  0
   27.6851   39.2516   67.4192 H   0  0  0  0  0  0  0  0  0  0  0  0
   26.9343   35.9838   68.8160 H   0  0  0  0  0  0  0  0  0  0  0  0
   27.9033   36.2226   70.2899 H   0  0  0  0  0  0  0  0  0  0  0  0
   26.3874   37.1281   70.0649 H   0  0  0  0  0  0  0  0  0  0  0  0
  1  2  1  0  0  0  0
  1 27  1  0  0  0  0
  1 28  1  0  0  0  0
  1 29  1  0  0  0  0
  2  3  1  0  0  0  0
  2 30  1  0  0  0  0
  2 31  1  0  0  0  0
  3  4  1  0  0  0  0
  4  5  2  0  0  0  0
  4  6  1  0  0  0  0
  6 26  1  0  0  0  0
  6  7  2  0  0  0  0
  7  8  1  0  0  0  0
  7 14  1  0  0  0  0
  8 13  2  0  0  0  0
  8  9  1  0  0  0  0
  9 10  2  0  0  0  0
  9 32  1  0  0  0  0
 10 11  1  0  0  0  0
 10 33  1  0  0  0  0
 11 12  2  0  0  0  0
 11 34  1  0  0  0  0
 12 13  1  0  0  0  0
 12 35  1  0  0  0  0
 13 36  1  0  0  0  0
 14 15  1  0  0  0  0
 15 26  2  0  0  0  0
 15 16  1  0  0  0  0
 16 17  2  0  0  0  0
 16 37  1  0  0  0  0
 17 18  1  0  0  0  0
 17 38  1  0  0  0  0
 18 19  1  0  0  0  0
 18 20  2  0  0  0  0
 19 39  1  0  0  0  0
 20 21  1  0  0  0  0
 20 26  1  0  0  0  0
 21 22  1  0  0  0  0
 21 40  1  0  0  0  0
 21 41  1  0  0  0  0
 22 23  1  0  0  0  0
 22 24  1  0  0  0  0
 22 25  1  0  0  0  0
 24 42  1  0  0  0  0
 24 43  1  0  0  0  0
 24 44  1  0  0  0  0
 25 45  1  0  0  0  0
 25 46  1  0  0  0  0
 25 47  1  0  0  0  0
M  CHG  1  22   1
M  END
$$$$
