ZINC000000038679      none
 OpenBabel11202420153D

 27 28  0  0  0  0  0  0  0  0999 V2000
   33.6014   36.1946   52.0346 C   0  0  0  0  0  0  0  0  0  0  0  0
   33.5540   35.6558   53.4413 C   0  0  0  0  0  0  0  0  0  0  0  0
   33.9879   34.3898   53.8496 C   0  0  0  0  0  0  0  0  0  0  0  0
   33.7806   34.2884   55.1830 C   0  0  0  0  0  0  0  0  0  0  0  0
   34.1040   33.0950   56.0446 C   0  0  0  0  0  0  0  0  0  0  0  0
   33.2261   35.4482   55.6026 N   0  0  0  0  0  0  0  0  0  0  0  0
   32.8503   35.7546   56.9178 C   0  0  0  0  0  0  0  0  0  0  0  0
   32.8921   37.0682   57.3652 C   0  0  0  0  0  0  0  0  0  0  0  0
   32.5167   37.3676   58.6602 C   0  0  0  0  0  0  0  0  0  0  0  0
   32.1098   36.3591   59.5143 C   0  0  0  0  0  0  0  0  0  0  0  0
   31.7140   36.6825   60.9034 N   0  0  0  0  0  0  0  0  0  0  0  0
   31.7469   37.8359   61.2932 O   0  0  0  0  0  0  0  0  0  0  0  0
   31.3554   35.7950   61.6567 O   0  0  0  0  0  0  0  0  0  0  0  0
   32.0717   35.0491   59.0731 C   0  0  0  0  0  0  0  0  0  0  0  0
   32.4409   34.7443   57.7776 C   0  0  0  0  0  0  0  0  0  0  0  0
   33.0944   36.2895   54.4902 N   0  0  0  0  0  0  0  0  0  0  0  0
   34.5496   36.7078   51.8739 H   0  0  0  0  0  0  0  0  0  0  0  0
   32.7795   36.8949   51.8860 H   0  0  0  0  0  0  0  0  0  0  0  0
   33.5096   35.3707   51.3268 H   0  0  0  0  0  0  0  0  0  0  0  0
   34.4155   33.6290   53.2135 H   0  0  0  0  0  0  0  0  0  0  0  0
   33.2455   32.4242   56.0734 H   0  0  0  0  0  0  0  0  0  0  0  0
   34.9627   32.5685   55.6283 H   0  0  0  0  0  0  0  0  0  0  0  0
   34.3381   33.4293   57.0554 H   0  0  0  0  0  0  0  0  0  0  0  0
   33.2143   37.8558   56.7000 H   0  0  0  0  0  0  0  0  0  0  0  0
   32.5454   38.3899   59.0076 H   0  0  0  0  0  0  0  0  0  0  0  0
   31.7532   34.2636   59.7424 H   0  0  0  0  0  0  0  0  0  0  0  0
   32.4109   33.7209   57.4336 H   0  0  0  0  0  0  0  0  0  0  0  0
  1  2  1  0  0  0  0
  1 17  1  0  0  0  0
  1 18  1  0  0  0  0
  1 19  1  0  0  0  0
  2 16  2  0  0  0  0
  2  3  1  0  0  0  0
  3  4  2  0  0  0  0
  3 20  1  0  0  0  0
  4  5  1  0  0  0  0
  4  6  1  0  0  0  0
  5 21  1  0  0  0  0
  5 22  1  0  0  0  0
  5 23  1  0  0  0  0
  6  7  1  0  0  0  0
  6 16  1  0  0  0  0
  7 15  2  0  0  0  0
  7  8  1  0  0  0  0
  8  9  2  0  0  0  0
  8 24  1  0  0  0  0
  9 10  1  0  0  0  0
  9 25  1  0  0  0  0
 10 11  1  0  0  0  0
 10 14  2  0  0  0  0
 11 12  2  0  0  0  0
 11 13  2  0  0  0  0
 14 15  1  0  0  0  0
 14 26  1  0  0  0  0
 15 27  1  0  0  0  0
M  END
$$$$
