ZINC000000044517      none
 OpenBabel11202420153D

 46 47  0  0  1  0  0  0  0  0999 V2000
   31.2063   33.4298   59.0209 C   0  0  0  0  0  0  0  0  0  0  0  0
   32.2080   34.4058   59.3142 O   0  0  0  0  0  0  0  0  0  0  0  0
   32.0165   35.1739   60.4201 C   0  0  0  0  0  0  0  0  0  0  0  0
   32.5100   34.7593   61.6464 C   0  0  0  0  0  0  0  0  0  0  0  0
   32.3174   35.5462   62.7719 C   0  0  0  0  0  0  0  0  0  0  0  0
   32.8054   35.1424   63.9750 O   0  0  0  0  0  0  0  0  0  0  0  0
   31.6225   36.7425   62.6719 C   0  0  0  0  0  0  0  0  0  0  0  0
   31.4097   37.5936   63.8971 C   0  0  1  0  0  0  0  0  0  0  0  0
   32.3757   37.8834   64.3105 H   0  0  0  0  0  0  0  0  0  0  0  0
   30.6211   38.8481   63.5159 C   0  0  0  0  0  0  0  0  0  0  0  0
   30.6379   36.8085   64.9263 C   0  0  0  0  0  0  0  0  0  0  0  0
   29.7384   35.8400   64.5221 C   0  0  0  0  0  0  0  0  0  0  0  0
   29.0262   35.1154   65.4658 C   0  0  0  0  0  0  0  0  0  0  0  0
   28.1413   34.1627   65.0672 O   0  0  0  0  0  0  0  0  0  0  0  0
   28.6444   32.8344   64.9118 C   0  0  0  0  0  0  0  0  0  0  0  0
   29.2138   35.3679   66.8196 C   0  0  0  0  0  0  0  0  0  0  0  0
   28.5125   34.6632   67.7488 O   0  0  0  0  0  0  0  0  0  0  0  0
   27.2533   35.2014   68.1568 C   0  0  0  0  0  0  0  0  0  0  0  0
   30.1232   36.3390   67.2219 C   0  0  0  0  0  0  0  0  0  0  0  0
   30.3142   36.5862   68.5456 O   0  0  0  0  0  0  0  0  0  0  0  0
   31.2644   37.5979   68.8860 C   0  0  0  0  0  0  0  0  0  0  0  0
   30.8314   37.0591   66.2718 C   0  0  0  0  0  0  0  0  0  0  0  0
   31.1300   37.1577   61.4489 C   0  0  0  0  0  0  0  0  0  0  0  0
   31.3245   36.3768   60.3213 C   0  0  0  0  0  0  0  0  0  0  0  0
   30.8392   36.7863   59.1178 O   0  0  0  0  0  0  0  0  0  0  0  0
   31.4809   32.8879   58.1159 H   0  0  0  0  0  0  0  0  0  0  0  0
   31.1258   32.7304   59.8530 H   0  0  0  0  0  0  0  0  0  0  0  0
   30.2479   33.9268   58.8701 H   0  0  0  0  0  0  0  0  0  0  0  0
   33.0478   33.8261   61.7251 H   0  0  0  0  0  0  0  0  0  0  0  0
   32.6220   35.7557   64.6998 H   0  0  0  0  0  0  0  0  0  0  0  0
   30.4672   39.4637   64.4021 H   0  0  0  0  0  0  0  0  0  0  0  0
   31.1793   39.4159   62.7715 H   0  0  0  0  0  0  0  0  0  0  0  0
   29.6550   38.5583   63.1025 H   0  0  0  0  0  0  0  0  0  0  0  0
   29.5900   35.6472   63.4698 H   0  0  0  0  0  0  0  0  0  0  0  0
   29.4358   32.8309   64.1624 H   0  0  0  0  0  0  0  0  0  0  0  0
   29.0436   32.4833   65.8633 H   0  0  0  0  0  0  0  0  0  0  0  0
   27.8374   32.1753   64.5911 H   0  0  0  0  0  0  0  0  0  0  0  0
   27.4041   36.1897   68.5913 H   0  0  0  0  0  0  0  0  0  0  0  0
   26.5949   35.2815   67.2919 H   0  0  0  0  0  0  0  0  0  0  0  0
   26.8002   34.5437   68.8986 H   0  0  0  0  0  0  0  0  0  0  0  0
   30.9541   38.5485   68.4522 H   0  0  0  0  0  0  0  0  0  0  0  0
   31.3197   37.6942   69.9703 H   0  0  0  0  0  0  0  0  0  0  0  0
   32.2440   37.3226   68.4951 H   0  0  0  0  0  0  0  0  0  0  0  0
   31.5352   37.8166   66.5836 H   0  0  0  0  0  0  0  0  0  0  0  0
   30.5927   38.0914   61.3725 H   0  0  0  0  0  0  0  0  0  0  0  0
   31.0244   36.1761   58.3908 H   0  0  0  0  0  0  0  0  0  0  0  0
  1  2  1  0  0  0  0
  1 26  1  0  0  0  0
  1 27  1  0  0  0  0
  1 28  1  0  0  0  0
  2  3  1  0  0  0  0
  3 24  2  0  0  0  0
  3  4  1  0  0  0  0
  4  5  2  0  0  0  0
  4 29  1  0  0  0  0
  5  6  1  0  0  0  0
  5  7  1  0  0  0  0
  6 30  1  0  0  0  0
  7  8  1  0  0  0  0
  7 23  2  0  0  0  0
  8  9  1  1  0  0  0
  8 10  1  0  0  0  0
  8 11  1  0  0  0  0
 10 31  1  0  0  0  0
 10 32  1  0  0  0  0
 10 33  1  0  0  0  0
 11 22  2  0  0  0  0
 11 12  1  0  0  0  0
 12 13  2  0  0  0  0
 12 34  1  0  0  0  0
 13 14  1  0  0  0  0
 13 16  1  0  0  0  0
 14 15  1  0  0  0  0
 15 35  1  0  0  0  0
 15 36  1  0  0  0  0
 15 37  1  0  0  0  0
 16 17  1  0  0  0  0
 16 19  2  0  0  0  0
 17 18  1  0  0  0  0
 18 38  1  0  0  0  0
 18 39  1  0  0  0  0
 18 40  1  0  0  0  0
 19 20  1  0  0  0  0
 19 22  1  0  0  0  0
 20 21  1  0  0  0  0
 21 41  1  0  0  0  0
 21 42  1  0  0  0  0
 21 43  1  0  0  0  0
 22 44  1  0  0  0  0
 23 24  1  0  0  0  0
 23 45  1  0  0  0  0
 24 25  1  0  0  0  0
 25 46  1  0  0  0  0
M  END
$$$$
