ZINC000000035173      none
 OpenBabel11202420153D

 28 29  0  0  0  0  0  0  0  0999 V2000
   28.1923   33.8573   65.5268 C   0  0  0  0  0  0  0  0  0  0  0  0
   29.0304   34.6678   64.6613 O   0  0  0  0  0  0  0  0  0  0  0  0
   29.4066   35.8732   65.1289 C   0  0  0  0  0  0  0  0  0  0  0  0
   29.0444   36.2379   66.2300 O   0  0  0  0  0  0  0  0  0  0  0  0
   30.1848   36.6753   64.3756 N   0  0  0  0  0  0  0  0  0  0  0  0
   30.6004   37.9891   64.8709 C   0  0  0  0  0  0  0  0  0  0  0  0
   30.4883   39.0251   63.7517 C   0  0  0  0  0  0  0  0  0  0  0  0
   29.1952   38.8404   63.0024 C   0  0  0  0  0  0  0  0  0  0  0  0
   28.2757   39.6092   63.1883 O   0  0  0  0  0  0  0  0  0  0  0  0
   29.0533   37.8241   62.1242 N   0  0  0  0  0  0  0  0  0  0  0  0
   30.0676   36.8719   61.9706 C   0  0  0  0  0  0  0  0  0  0  0  0
   30.5224   36.5152   60.7118 C   0  0  0  0  0  0  0  0  0  0  0  0
   31.5043   35.5500   60.5830 C   0  0  0  0  0  0  0  0  0  0  0  0
   32.0293   34.9359   61.7055 C   0  0  0  0  0  0  0  0  0  0  0  0
   31.5847   35.2907   62.9660 C   0  0  0  0  0  0  0  0  0  0  0  0
   30.6071   36.2620   63.1038 C   0  0  0  0  0  0  0  0  0  0  0  0
   27.2660   34.3911   65.7393 H   0  0  0  0  0  0  0  0  0  0  0  0
   27.9627   32.9141   65.0309 H   0  0  0  0  0  0  0  0  0  0  0  0
   28.7191   33.6580   66.4601 H   0  0  0  0  0  0  0  0  0  0  0  0
   31.6338   37.9366   65.2138 H   0  0  0  0  0  0  0  0  0  0  0  0
   29.9589   38.2825   65.7017 H   0  0  0  0  0  0  0  0  0  0  0  0
   31.3250   38.9056   63.0635 H   0  0  0  0  0  0  0  0  0  0  0  0
   30.5169   40.0263   64.1818 H   0  0  0  0  0  0  0  0  0  0  0  0
   28.2425   37.7534   61.5966 H   0  0  0  0  0  0  0  0  0  0  0  0
   30.1113   36.9899   59.8332 H   0  0  0  0  0  0  0  0  0  0  0  0
   31.8623   35.2744   59.6020 H   0  0  0  0  0  0  0  0  0  0  0  0
   32.7897   34.1767   61.5972 H   0  0  0  0  0  0  0  0  0  0  0  0
   31.9956   34.8083   63.8406 H   0  0  0  0  0  0  0  0  0  0  0  0
  1  2  1  0  0  0  0
  1 17  1  0  0  0  0
  1 18  1  0  0  0  0
  1 19  1  0  0  0  0
  2  3  1  0  0  0  0
  3  4  2  0  0  0  0
  3  5  1  0  0  0  0
  5 16  1  0  0  0  0
  5  6  1  0  0  0  0
  6  7  1  0  0  0  0
  6 20  1  0  0  0  0
  6 21  1  0  0  0  0
  7  8  1  0  0  0  0
  7 22  1  0  0  0  0
  7 23  1  0  0  0  0
  8  9  2  0  0  0  0
  8 10  1  0  0  0  0
 10 11  1  0  0  0  0
 10 24  1  0  0  0  0
 11 16  2  0  0  0  0
 11 12  1  0  0  0  0
 12 13  2  0  0  0  0
 12 25  1  0  0  0  0
 13 14  1  0  0  0  0
 13 26  1  0  0  0  0
 14 15  2  0  0  0  0
 14 27  1  0  0  0  0
 15 16  1  0  0  0  0
 15 28  1  0  0  0  0
M  END
$$$$
