ZINC000000029455      none
 OpenBabel11202420163D

 40 41  0  0  1  0  0  0  0  0999 V2000
   32.4071   37.2126   58.8026 C   0  0  0  0  0  0  0  0  0  0  0  0
   31.7338   37.0034   60.1346 C   0  0  0  0  0  0  0  0  0  0  0  0
   31.7193   35.7474   60.7120 C   0  0  0  0  0  0  0  0  0  0  0  0
   31.1021   35.5557   61.9339 C   0  0  0  0  0  0  0  0  0  0  0  0
   31.0860   34.1864   62.5633 C   0  0  0  0  0  0  0  0  0  0  0  0
   30.4978   36.6193   62.5776 C   0  0  0  0  0  0  0  0  0  0  0  0
   29.7101   36.3745   64.1346 S   0  0  0  0  0  0  0  0  0  0  0  0
   29.1945   37.6393   64.5267 O   0  0  0  0  0  0  0  0  0  0  0  0
   28.9013   35.2142   63.9971 O   0  0  0  0  0  0  0  0  0  0  0  0
   30.8935   35.9927   65.2281 N   0  0  0  0  0  0  0  0  0  0  0  0
   31.9834   36.9368   65.4876 C   0  0  0  0  0  0  0  0  0  0  0  0
   32.4687   36.7718   66.9292 C   0  0  2  0  0  0  0  0  0  0  0  0
   32.8309   35.7568   67.0929 H   0  0  0  0  0  0  0  0  0  0  0  0
   31.3316   37.1035   67.9208 C   0  0  0  0  0  0  0  0  0  0  0  0
   32.0481   37.8186   69.0882 C   0  0  0  0  0  0  0  0  0  0  0  0
   33.5334   37.8342   68.6636 C   0  0  0  0  0  0  0  0  0  0  0  0
   33.5086   37.7302   67.2224 O   0  0  0  0  0  0  0  0  0  0  0  0
   30.5131   37.8754   62.0006 C   0  0  0  0  0  0  0  0  0  0  0  0
   29.8557   39.0353   62.7031 C   0  0  0  0  0  0  0  0  0  0  0  0
   31.1311   38.0674   60.7791 C   0  0  0  0  0  0  0  0  0  0  0  0
   31.6855   37.0526   58.0016 H   0  0  0  0  0  0  0  0  0  0  0  0
   32.7926   38.2306   58.7464 H   0  0  0  0  0  0  0  0  0  0  0  0
   33.2302   36.5060   58.6967 H   0  0  0  0  0  0  0  0  0  0  0  0
   32.1863   34.9152   60.2063 H   0  0  0  0  0  0  0  0  0  0  0  0
   31.9663   34.0662   63.1946 H   0  0  0  0  0  0  0  0  0  0  0  0
   30.1866   34.0756   63.1691 H   0  0  0  0  0  0  0  0  0  0  0  0
   31.0932   33.4271   61.7813 H   0  0  0  0  0  0  0  0  0  0  0  0
   30.8652   35.1439   65.6968 H   0  0  0  0  0  0  0  0  0  0  0  0
   32.8070   36.7381   64.8019 H   0  0  0  0  0  0  0  0  0  0  0  0
   31.6248   37.9554   65.3392 H   0  0  0  0  0  0  0  0  0  0  0  0
   30.6018   37.7670   67.4568 H   0  0  0  0  0  0  0  0  0  0  0  0
   30.8508   36.1897   68.2702 H   0  0  0  0  0  0  0  0  0  0  0  0
   31.6725   38.8355   69.2013 H   0  0  0  0  0  0  0  0  0  0  0  0
   31.9216   37.2583   70.0146 H   0  0  0  0  0  0  0  0  0  0  0  0
   34.0055   38.7679   68.9690 H   0  0  0  0  0  0  0  0  0  0  0  0
   34.0607   36.9840   69.0963 H   0  0  0  0  0  0  0  0  0  0  0  0
   28.7824   39.0137   62.5139 H   0  0  0  0  0  0  0  0  0  0  0  0
   30.0372   38.9609   63.7753 H   0  0  0  0  0  0  0  0  0  0  0  0
   30.2718   39.9704   62.3281 H   0  0  0  0  0  0  0  0  0  0  0  0
   31.1427   39.0487   60.3281 H   0  0  0  0  0  0  0  0  0  0  0  0
  1  2  1  0  0  0  0
  1 21  1  0  0  0  0
  1 22  1  0  0  0  0
  1 23  1  0  0  0  0
  2 20  2  0  0  0  0
  2  3  1  0  0  0  0
  3  4  2  0  0  0  0
  3 24  1  0  0  0  0
  4  5  1  0  0  0  0
  4  6  1  0  0  0  0
  5 25  1  0  0  0  0
  5 26  1  0  0  0  0
  5 27  1  0  0  0  0
  6  7  1  0  0  0  0
  6 18  2  0  0  0  0
  7  8  2  0  0  0  0
  7  9  2  0  0  0  0
  7 10  1  0  0  0  0
 10 11  1  0  0  0  0
 10 28  1  0  0  0  0
 11 12  1  0  0  0  0
 11 29  1  0  0  0  0
 11 30  1  0  0  0  0
 12 13  1  1  0  0  0
 12 17  1  0  0  0  0
 12 14  1  0  0  0  0
 14 15  1  0  0  0  0
 14 31  1  0  0  0  0
 14 32  1  0  0  0  0
 15 16  1  0  0  0  0
 15 33  1  0  0  0  0
 15 34  1  0  0  0  0
 16 17  1  0  0  0  0
 16 35  1  0  0  0  0
 16 36  1  0  0  0  0
 18 19  1  0  0  0  0
 18 20  1  0  0  0  0
 19 37  1  0  0  0  0
 19 38  1  0  0  0  0
 19 39  1  0  0  0  0
 20 40  1  0  0  0  0
M  END
$$$$
