ZINC000000018203      none
 OpenBabel11202420153D

 29 31  0  0  1  0  0  0  0  0999 V2000
   31.9352   37.2585   60.8763 C   0  0  0  0  0  0  0  0  0  0  0  0
   32.4940   37.8130   59.6408 N   0  0  0  0  0  0  0  0  0  0  0  0
   32.8643   39.0915   59.4318 C   0  0  0  0  0  0  0  0  0  0  0  0
   33.3189   39.2254   58.2119 N   0  0  0  0  0  0  0  0  0  0  0  0
   33.2658   38.0514   57.5776 C   0  0  0  0  0  0  0  0  0  0  0  0
   32.7403   37.1249   58.4696 C   0  0  0  0  0  0  0  0  0  0  0  0
   32.5731   35.7868   58.0525 C   0  0  0  0  0  0  0  0  0  0  0  0
   32.1147   34.9561   58.8162 O   0  0  0  0  0  0  0  0  0  0  0  0
   32.9280   35.4386   56.7981 N   0  0  0  0  0  0  0  0  0  0  0  0
   32.7574   34.0514   56.3589 C   0  0  0  0  0  0  0  0  0  0  0  0
   34.0287   33.2584   56.6686 C   0  0  2  0  0  0  0  0  0  0  0  0
   34.3135   33.2130   57.7198 H   0  0  0  0  0  0  0  0  0  0  0  0
   35.1487   33.2716   55.6265 C   0  0  0  0  0  0  0  0  0  0  0  0
   34.3235   32.1261   55.8483 O   0  0  0  0  0  0  0  0  0  0  0  0
   33.4351   36.3454   55.9453 C   0  0  0  0  0  0  0  0  0  0  0  0
   33.7387   35.9964   54.8208 O   0  0  0  0  0  0  0  0  0  0  0  0
   33.6104   37.6315   56.3031 N   0  0  0  0  0  0  0  0  0  0  0  0
   34.1669   38.5882   55.3434 C   0  0  0  0  0  0  0  0  0  0  0  0
   32.7445   36.8996   61.5122 H   0  0  0  0  0  0  0  0  0  0  0  0
   31.3762   38.0327   61.4019 H   0  0  0  0  0  0  0  0  0  0  0  0
   31.2690   36.4304   60.6342 H   0  0  0  0  0  0  0  0  0  0  0  0
   32.7968   39.8853   60.1608 H   0  0  0  0  0  0  0  0  0  0  0  0
   31.9135   33.6049   56.8848 H   0  0  0  0  0  0  0  0  0  0  0  0
   32.5687   34.0307   55.2856 H   0  0  0  0  0  0  0  0  0  0  0  0
   34.9867   33.8451   54.7138 H   0  0  0  0  0  0  0  0  0  0  0  0
   36.1771   33.2339   55.9856 H   0  0  0  0  0  0  0  0  0  0  0  0
   34.3754   38.0793   54.4023 H   0  0  0  0  0  0  0  0  0  0  0  0
   33.4487   39.3899   55.1715 H   0  0  0  0  0  0  0  0  0  0  0  0
   35.0906   39.0074   55.7422 H   0  0  0  0  0  0  0  0  0  0  0  0
  1  2  1  0  0  0  0
  1 19  1  0  0  0  0
  1 20  1  0  0  0  0
  1 21  1  0  0  0  0
  2  6  1  0  0  0  0
  2  3  1  0  0  0  0
  3  4  2  0  0  0  0
  3 22  1  0  0  0  0
  4  5  1  0  0  0  0
  5 17  1  0  0  0  0
  5  6  2  0  0  0  0
  6  7  1  0  0  0  0
  7  8  2  0  0  0  0
  7  9  1  0  0  0  0
  9 10  1  0  0  0  0
  9 15  1  0  0  0  0
 10 11  1  0  0  0  0
 10 23  1  0  0  0  0
 10 24  1  0  0  0  0
 11 12  1  1  0  0  0
 11 14  1  0  0  0  0
 11 13  1  0  0  0  0
 13 14  1  0  0  0  0
 13 25  1  0  0  0  0
 13 26  1  0  0  0  0
 15 16  2  0  0  0  0
 15 17  1  0  0  0  0
 17 18  1  0  0  0  0
 18 27  1  0  0  0  0
 18 28  1  0  0  0  0
 18 29  1  0  0  0  0
M  END
$$$$
