ZINC000000049571      none
 OpenBabel11202420153D

 33 36  0  0  0  0  0  0  0  0999 V2000
   32.9746   36.3754   64.7260 O   0  0  0  0  0  0  0  0  0  0  0  0
   32.3180   36.8959   63.8392 C   0  0  0  0  0  0  0  0  0  0  0  0
   32.6126   36.6672   62.4764 C   0  0  0  0  0  0  0  0  0  0  0  0
   31.8559   37.2677   61.5164 C   0  0  0  0  0  0  0  0  0  0  0  0
   32.1786   37.0173   60.0998 C   0  0  0  0  0  0  0  0  0  0  0  0
   32.1401   35.7169   59.5901 C   0  0  0  0  0  0  0  0  0  0  0  0
   32.4439   35.4902   58.2642 C   0  0  0  0  0  0  0  0  0  0  0  0
   32.3950   33.8750   57.6298 Cl  0  0  0  0  0  0  0  0  0  0  0  0
   32.7875   36.5468   57.4358 C   0  0  0  0  0  0  0  0  0  0  0  0
   32.8303   37.8378   57.9280 C   0  0  0  0  0  0  0  0  0  0  0  0
   32.5267   38.0831   59.2571 C   0  0  0  0  0  0  0  0  0  0  0  0
   32.5613   39.3464   59.7528 O   0  0  0  0  0  0  0  0  0  0  0  0
   33.2561   40.3270   58.9769 C   0  0  0  0  0  0  0  0  0  0  0  0
   32.8318   40.2144   57.6131 O   0  0  0  0  0  0  0  0  0  0  0  0
   33.2095   38.9730   57.0105 C   0  0  0  0  0  0  0  0  0  0  0  0
   30.8311   38.0827   61.8102 O   0  0  0  0  0  0  0  0  0  0  0  0
   30.4699   38.3578   63.0813 C   0  0  0  0  0  0  0  0  0  0  0  0
   29.3997   39.2023   63.3506 C   0  0  0  0  0  0  0  0  0  0  0  0
   29.0498   39.4749   64.6558 C   0  0  0  0  0  0  0  0  0  0  0  0
   29.7571   38.9138   65.7104 C   0  0  0  0  0  0  0  0  0  0  0  0
   29.2990   39.2716   67.3462 Cl  0  0  0  0  0  0  0  0  0  0  0  0
   30.8215   38.0726   65.4636 C   0  0  0  0  0  0  0  0  0  0  0  0
   31.1842   37.7905   64.1478 C   0  0  0  0  0  0  0  0  0  0  0  0
   33.4316   36.0206   62.1980 H   0  0  0  0  0  0  0  0  0  0  0  0
   31.8730   34.8912   60.2330 H   0  0  0  0  0  0  0  0  0  0  0  0
   33.0237   36.3602   56.3986 H   0  0  0  0  0  0  0  0  0  0  0  0
   33.0221   41.3233   59.3519 H   0  0  0  0  0  0  0  0  0  0  0  0
   34.3300   40.1533   59.0444 H   0  0  0  0  0  0  0  0  0  0  0  0
   32.6924   38.8589   56.0577 H   0  0  0  0  0  0  0  0  0  0  0  0
   34.2865   38.9623   56.8434 H   0  0  0  0  0  0  0  0  0  0  0  0
   28.8429   39.6450   62.5380 H   0  0  0  0  0  0  0  0  0  0  0  0
   28.2173   40.1319   64.8600 H   0  0  0  0  0  0  0  0  0  0  0  0
   31.3712   37.6362   66.2845 H   0  0  0  0  0  0  0  0  0  0  0  0
  1  2  2  0  0  0  0
  2 23  1  0  0  0  0
  2  3  1  0  0  0  0
  3  4  2  0  0  0  0
  3 24  1  0  0  0  0
  4  5  1  0  0  0  0
  4 16  1  0  0  0  0
  5 11  2  0  0  0  0
  5  6  1  0  0  0  0
  6  7  2  0  0  0  0
  6 25  1  0  0  0  0
  7  8  1  0  0  0  0
  7  9  1  0  0  0  0
  9 10  2  0  0  0  0
  9 26  1  0  0  0  0
 10 15  1  0  0  0  0
 10 11  1  0  0  0  0
 11 12  1  0  0  0  0
 12 13  1  0  0  0  0
 13 14  1  0  0  0  0
 13 27  1  0  0  0  0
 13 28  1  0  0  0  0
 14 15  1  0  0  0  0
 15 29  1  0  0  0  0
 15 30  1  0  0  0  0
 16 17  1  0  0  0  0
 17 23  2  0  0  0  0
 17 18  1  0  0  0  0
 18 19  2  0  0  0  0
 18 31  1  0  0  0  0
 19 20  1  0  0  0  0
 19 32  1  0  0  0  0
 20 21  1  0  0  0  0
 20 22  2  0  0  0  0
 22 23  1  0  0  0  0
 22 33  1  0  0  0  0
M  END
$$$$
