ZINC000000022751      none
 OpenBabel11202420153D

 32 33  0  0  1  0  0  0  0  0999 V2000
   32.7628   37.6510   71.1912 N   0  0  0  0  0  0  0  0  0  0  0  0
   32.7911   37.5424   69.8202 C   0  0  0  0  0  0  0  0  0  0  0  0
   33.4492   38.5191   69.0449 C   0  0  0  0  0  0  0  0  0  0  0  0
   33.4619   38.3880   67.6973 C   0  0  0  0  0  0  0  0  0  0  0  0
   32.8402   37.3183   67.1260 N   0  0  0  0  0  0  0  0  0  0  0  0
   32.8460   37.1648   65.6690 C   0  0  0  0  0  0  0  0  0  0  0  0
   31.6231   37.8686   65.0772 C   0  0  0  0  0  0  0  0  0  0  0  0
   31.6290   37.7150   63.6202 N   0  0  0  0  0  0  0  0  0  0  0  0
   31.0956   38.6410   62.8325 C   0  0  0  0  0  0  0  0  0  0  0  0
   30.5796   39.6424   63.2817 O   0  0  0  0  0  0  0  0  0  0  0  0
   31.1703   38.3809   61.3412 C   0  0  0  0  0  0  0  0  0  0  0  0
   32.4364   37.0528   61.2389 S   0  0  0  0  0  0  0  0  0  0  0  0
   32.2203   36.5277   62.9860 C   0  0  2  0  0  0  0  0  0  0  0  0
   33.1815   36.2870   63.4403 H   0  0  0  0  0  0  0  0  0  0  0  0
   31.2671   35.3345   63.0779 C   0  0  0  0  0  0  0  0  0  0  0  0
   31.3607   34.7492   64.3782 O   0  0  0  0  0  0  0  0  0  0  0  0
   32.2204   36.4028   67.8931 C   0  0  0  0  0  0  0  0  0  0  0  0
   31.6686   35.4519   67.3646 O   0  0  0  0  0  0  0  0  0  0  0  0
   32.1950   36.5207   69.2195 N   0  0  0  0  0  0  0  0  0  0  0  0
   33.1965   38.4011   71.6274 H   0  0  0  0  0  0  0  0  0  0  0  0
   32.3092   36.9775   71.7219 H   0  0  0  0  0  0  0  0  0  0  0  0
   33.9353   39.3591   69.5187 H   0  0  0  0  0  0  0  0  0  0  0  0
   33.9591   39.1232   67.0819 H   0  0  0  0  0  0  0  0  0  0  0  0
   33.7538   37.6088   65.2606 H   0  0  0  0  0  0  0  0  0  0  0  0
   32.8136   36.1052   65.4153 H   0  0  0  0  0  0  0  0  0  0  0  0
   30.7153   37.4247   65.4856 H   0  0  0  0  0  0  0  0  0  0  0  0
   31.6555   38.9281   65.3309 H   0  0  0  0  0  0  0  0  0  0  0  0
   31.4984   39.2718   60.8055 H   0  0  0  0  0  0  0  0  0  0  0  0
   30.2106   38.0323   60.9598 H   0  0  0  0  0  0  0  0  0  0  0  0
   30.2453   35.6715   62.9040 H   0  0  0  0  0  0  0  0  0  0  0  0
   31.5384   34.5938   62.3256 H   0  0  0  0  0  0  0  0  0  0  0  0
   31.1327   35.3529   65.0985 H   0  0  0  0  0  0  0  0  0  0  0  0
  1  2  1  0  0  0  0
  1 20  1  0  0  0  0
  1 21  1  0  0  0  0
  2 19  2  0  0  0  0
  2  3  1  0  0  0  0
  3  4  2  0  0  0  0
  3 22  1  0  0  0  0
  4  5  1  0  0  0  0
  4 23  1  0  0  0  0
  5  6  1  0  0  0  0
  5 17  1  0  0  0  0
  6  7  1  0  0  0  0
  6 24  1  0  0  0  0
  6 25  1  0  0  0  0
  7  8  1  0  0  0  0
  7 26  1  0  0  0  0
  7 27  1  0  0  0  0
  8 13  1  0  0  0  0
  8  9  1  0  0  0  0
  9 10  2  0  0  0  0
  9 11  1  0  0  0  0
 11 12  1  0  0  0  0
 11 28  1  0  0  0  0
 11 29  1  0  0  0  0
 12 13  1  0  0  0  0
 13 14  1  1  0  0  0
 13 15  1  0  0  0  0
 15 16  1  0  0  0  0
 15 30  1  0  0  0  0
 15 31  1  0  0  0  0
 16 32  1  0  0  0  0
 17 18  2  0  0  0  0
 17 19  1  0  0  0  0
M  END
$$$$
