ZINC000000053740      none
 OpenBabel11202420153D

 27 28  0  0  0  0  0  0  0  0999 V2000
   34.3254   39.9341   55.7799 Cl  0  0  0  0  0  0  0  0  0  0  0  0
   33.6802   38.6601   56.7671 C   0  0  0  0  0  0  0  0  0  0  0  0
   33.5554   37.4382   56.2718 N   0  0  0  0  0  0  0  0  0  0  0  0
   33.0687   36.4624   57.0234 C   0  0  0  0  0  0  0  0  0  0  0  0
   32.9075   34.8624   56.3696 Cl  0  0  0  0  0  0  0  0  0  0  0  0
   32.7058   36.7055   58.2715 N   0  0  0  0  0  0  0  0  0  0  0  0
   32.8300   37.9316   58.7718 C   0  0  0  0  0  0  0  0  0  0  0  0
   32.4518   38.1887   60.0737 N   0  0  0  0  0  0  0  0  0  0  0  0
   31.9130   37.1106   60.9064 C   0  0  0  0  0  0  0  0  0  0  0  0
   30.3924   37.0539   60.7463 C   0  0  0  0  0  0  0  0  0  0  0  0
   29.8296   35.9280   61.6159 C   0  0  0  0  0  0  0  0  0  0  0  0
   30.1785   36.1929   63.0820 C   0  0  0  0  0  0  0  0  0  0  0  0
   31.6990   36.2496   63.2421 C   0  0  0  0  0  0  0  0  0  0  0  0
   32.2619   37.3755   62.3724 C   0  0  0  0  0  0  0  0  0  0  0  0
   33.3191   38.9095   58.0145 N   0  0  0  0  0  0  0  0  0  0  0  0
   32.5429   39.0833   60.4375 H   0  0  0  0  0  0  0  0  0  0  0  0
   32.3467   36.1601   60.5958 H   0  0  0  0  0  0  0  0  0  0  0  0
   29.9586   38.0044   61.0569 H   0  0  0  0  0  0  0  0  0  0  0  0
   30.1438   36.8652   59.7019 H   0  0  0  0  0  0  0  0  0  0  0  0
   30.2633   34.9776   61.3053 H   0  0  0  0  0  0  0  0  0  0  0  0
   28.7463   35.8876   61.5019 H   0  0  0  0  0  0  0  0  0  0  0  0
   29.7775   35.3908   63.7016 H   0  0  0  0  0  0  0  0  0  0  0  0
   29.7447   37.1434   63.3925 H   0  0  0  0  0  0  0  0  0  0  0  0
   32.1327   35.2991   62.9315 H   0  0  0  0  0  0  0  0  0  0  0  0
   31.9475   36.4383   64.2864 H   0  0  0  0  0  0  0  0  0  0  0  0
   33.3451   37.4159   62.4865 H   0  0  0  0  0  0  0  0  0  0  0  0
   31.8280   38.3261   62.6831 H   0  0  0  0  0  0  0  0  0  0  0  0
  1  2  1  0  0  0  0
  2 15  2  0  0  0  0
  2  3  1  0  0  0  0
  3  4  2  0  0  0  0
  4  5  1  0  0  0  0
  4  6  1  0  0  0  0
  6  7  2  0  0  0  0
  7  8  1  0  0  0  0
  7 15  1  0  0  0  0
  8  9  1  0  0  0  0
  8 16  1  0  0  0  0
  9 14  1  0  0  0  0
  9 10  1  0  0  0  0
  9 17  1  0  0  0  0
 10 11  1  0  0  0  0
 10 18  1  0  0  0  0
 10 19  1  0  0  0  0
 11 12  1  0  0  0  0
 11 20  1  0  0  0  0
 11 21  1  0  0  0  0
 12 13  1  0  0  0  0
 12 22  1  0  0  0  0
 12 23  1  0  0  0  0
 13 14  1  0  0  0  0
 13 24  1  0  0  0  0
 13 25  1  0  0  0  0
 14 26  1  0  0  0  0
 14 27  1  0  0  0  0
M  END
$$$$
