ZINC000000040370      none
 OpenBabel11202420153D

 27 28  0  0  0  0  0  0  0  0999 V2000
   32.6124   38.5272   58.1913 C   0  0  0  0  0  0  0  0  0  0  0  0
   31.8956   38.1913   59.4738 C   0  0  0  0  0  0  0  0  0  0  0  0
   30.6286   37.6065   59.5762 C   0  0  0  0  0  0  0  0  0  0  0  0
   30.3392   37.4671   60.8907 C   0  0  0  0  0  0  0  0  0  0  0  0
   29.0754   36.8809   61.4652 C   0  0  0  0  0  0  0  0  0  0  0  0
   31.3880   37.9476   61.5961 N   0  0  0  0  0  0  0  0  0  0  0  0
   31.4930   37.9889   62.9935 C   0  0  0  0  0  0  0  0  0  0  0  0
   31.0363   39.0981   63.6929 C   0  0  0  0  0  0  0  0  0  0  0  0
   31.1410   39.1359   65.0694 C   0  0  0  0  0  0  0  0  0  0  0  0
   31.7006   38.0707   65.7512 C   0  0  0  0  0  0  0  0  0  0  0  0
   32.1563   36.9650   65.0576 C   0  0  0  0  0  0  0  0  0  0  0  0
   32.0486   36.9186   63.6811 C   0  0  0  0  0  0  0  0  0  0  0  0
   32.5306   35.7317   62.9397 N   0  0  0  0  0  0  0  0  0  0  0  0
   32.4399   35.6937   61.7258 O   0  0  0  0  0  0  0  0  0  0  0  0
   33.0180   34.7929   63.5437 O   0  0  0  0  0  0  0  0  0  0  0  0
   32.3514   38.3960   60.6834 N   0  0  0  0  0  0  0  0  0  0  0  0
   33.2155   37.6749   57.8783 H   0  0  0  0  0  0  0  0  0  0  0  0
   31.8815   38.7591   57.4167 H   0  0  0  0  0  0  0  0  0  0  0  0
   33.2584   39.3902   58.3515 H   0  0  0  0  0  0  0  0  0  0  0  0
   29.9937   37.3178   58.7517 H   0  0  0  0  0  0  0  0  0  0  0  0
   29.1784   35.7984   61.5404 H   0  0  0  0  0  0  0  0  0  0  0  0
   28.8988   37.2988   62.4564 H   0  0  0  0  0  0  0  0  0  0  0  0
   28.2347   37.1215   60.8145 H   0  0  0  0  0  0  0  0  0  0  0  0
   30.5998   39.9306   63.1611 H   0  0  0  0  0  0  0  0  0  0  0  0
   30.7860   39.9983   65.6140 H   0  0  0  0  0  0  0  0  0  0  0  0
   31.7823   38.1028   66.8276 H   0  0  0  0  0  0  0  0  0  0  0  0
   32.5928   36.1345   65.5926 H   0  0  0  0  0  0  0  0  0  0  0  0
  1  2  1  0  0  0  0
  1 17  1  0  0  0  0
  1 18  1  0  0  0  0
  1 19  1  0  0  0  0
  2 16  2  0  0  0  0
  2  3  1  0  0  0  0
  3  4  2  0  0  0  0
  3 20  1  0  0  0  0
  4  5  1  0  0  0  0
  4  6  1  0  0  0  0
  5 21  1  0  0  0  0
  5 22  1  0  0  0  0
  5 23  1  0  0  0  0
  6  7  1  0  0  0  0
  6 16  1  0  0  0  0
  7 12  2  0  0  0  0
  7  8  1  0  0  0  0
  8  9  2  0  0  0  0
  8 24  1  0  0  0  0
  9 10  1  0  0  0  0
  9 25  1  0  0  0  0
 10 11  2  0  0  0  0
 10 26  1  0  0  0  0
 11 12  1  0  0  0  0
 11 27  1  0  0  0  0
 12 13  1  0  0  0  0
 13 14  2  0  0  0  0
 13 15  2  0  0  0  0
M  END
$$$$
