ZINC000000032956      none
 OpenBabel11202420153D

 25 26  0  0  0  0  0  0  0  0999 V2000
   31.6104   34.2008   60.5965 C   0  0  0  0  0  0  0  0  0  0  0  0
   32.0868   35.1989   59.5728 C   0  0  0  0  0  0  0  0  0  0  0  0
   32.4785   34.7559   58.3110 C   0  0  0  0  0  0  0  0  0  0  0  0
   32.9132   35.6305   57.3635 C   0  0  0  0  0  0  0  0  0  0  0  0
   33.4032   35.0433   55.7761 S   0  0  0  0  0  0  0  0  0  0  0  0
   33.8685   36.3614   54.8881 N   0  0  0  0  0  0  0  0  0  0  0  0
   32.2296   34.5358   55.1563 O   0  0  0  0  0  0  0  0  0  0  0  0
   34.5734   34.2636   55.9803 O   0  0  0  0  0  0  0  0  0  0  0  0
   32.9756   37.0039   57.6580 C   0  0  0  0  0  0  0  0  0  0  0  0
   33.4038   37.8856   56.7489 N   0  0  0  0  0  0  0  0  0  0  0  0
   33.4642   39.1671   57.0183 C   0  0  0  0  0  0  0  0  0  0  0  0
   33.0871   39.6738   58.2602 C   0  0  0  0  0  0  0  0  0  0  0  0
   32.6298   38.8286   59.2308 C   0  0  0  0  0  0  0  0  0  0  0  0
   32.5718   37.4525   58.9398 C   0  0  0  0  0  0  0  0  0  0  0  0
   32.1284   36.5215   59.8929 C   0  0  0  0  0  0  0  0  0  0  0  0
   32.4592   33.8476   61.1820 H   0  0  0  0  0  0  0  0  0  0  0  0
   30.8857   34.6761   61.2575 H   0  0  0  0  0  0  0  0  0  0  0  0
   31.1417   33.3568   60.0903 H   0  0  0  0  0  0  0  0  0  0  0  0
   32.4361   33.7016   58.0812 H   0  0  0  0  0  0  0  0  0  0  0  0
   33.8335   37.2477   55.2807 H   0  0  0  0  0  0  0  0  0  0  0  0
   34.1799   36.2466   53.9765 H   0  0  0  0  0  0  0  0  0  0  0  0
   33.8153   39.8482   56.2572 H   0  0  0  0  0  0  0  0  0  0  0  0
   33.1478   40.7349   58.4521 H   0  0  0  0  0  0  0  0  0  0  0  0
   32.3334   39.2041   60.1991 H   0  0  0  0  0  0  0  0  0  0  0  0
   31.8225   36.8527   60.8743 H   0  0  0  0  0  0  0  0  0  0  0  0
  1  2  1  0  0  0  0
  1 16  1  0  0  0  0
  1 17  1  0  0  0  0
  1 18  1  0  0  0  0
  2 15  2  0  0  0  0
  2  3  1  0  0  0  0
  3  4  2  0  0  0  0
  3 19  1  0  0  0  0
  4  5  1  0  0  0  0
  4  9  1  0  0  0  0
  5  6  1  0  0  0  0
  5  7  2  0  0  0  0
  5  8  2  0  0  0  0
  6 20  1  0  0  0  0
  6 21  1  0  0  0  0
  9 14  2  0  0  0  0
  9 10  1  0  0  0  0
 10 11  2  0  0  0  0
 11 12  1  0  0  0  0
 11 22  1  0  0  0  0
 12 13  2  0  0  0  0
 12 23  1  0  0  0  0
 13 14  1  0  0  0  0
 13 24  1  0  0  0  0
 14 15  1  0  0  0  0
 15 25  1  0  0  0  0
M  END
$$$$
