ZINC000000024170      none
 OpenBabel11202420153D

 37 40  0  0  1  0  0  0  0  0999 V2000
   32.5582   35.8590   63.3818 C   0  0  0  0  0  0  0  0  0  0  0  0
   31.9499   37.1077   64.0236 C   0  0  0  0  0  0  0  0  0  0  0  0
   30.4408   37.1266   63.7723 C   0  0  2  0  0  0  0  0  0  0  0  0
   30.1963   37.1047   62.2855 C   0  0  0  0  0  0  0  0  0  0  0  0
   29.1319   36.5657   61.6890 C   0  0  0  0  0  0  0  0  0  0  0  0
   29.1211   36.6708   60.3089 C   0  0  0  0  0  0  0  0  0  0  0  0
   30.1768   37.2951   59.7844 C   0  0  0  0  0  0  0  0  0  0  0  0
   31.2671   37.7929   61.0716 S   0  0  0  0  0  0  0  0  0  0  0  0
   29.9081   38.3147   64.3017 O   0  0  0  0  0  0  0  0  0  0  0  0
   30.3640   38.8179   65.4591 C   0  0  0  0  0  0  0  0  0  0  0  0
   31.0117   40.0426   65.4921 C   0  0  0  0  0  0  0  0  0  0  0  0
   31.4946   40.5445   66.6849 C   0  0  0  0  0  0  0  0  0  0  0  0
   31.3330   39.8228   67.8536 C   0  0  0  0  0  0  0  0  0  0  0  0
   30.6828   38.6061   67.8332 C   0  0  0  0  0  0  0  0  0  0  0  0
   30.1835   38.0928   66.6410 C   0  0  0  0  0  0  0  0  0  0  0  0
   29.4918   36.8728   66.6748 N   0  0  0  0  0  0  0  0  0  0  0  0
   28.7959   36.4590   67.7753 C   0  0  0  0  0  0  0  0  0  0  0  0
   28.3264   35.2080   67.5603 C   0  0  0  0  0  0  0  0  0  0  0  0
   28.7006   34.8266   66.2738 C   0  0  0  0  0  0  0  0  0  0  0  0
   29.3993   35.8940   65.7179 C   0  0  0  0  0  0  0  0  0  0  0  0
   29.8423   35.9078   64.3739 C   0  0  0  0  0  0  0  0  0  0  0  0
   29.7303   34.9040   63.6995 O   0  0  0  0  0  0  0  0  0  0  0  0
   32.0470   34.9723   63.7567 H   0  0  0  0  0  0  0  0  0  0  0  0
   32.4435   35.9143   62.2993 H   0  0  0  0  0  0  0  0  0  0  0  0
   33.6174   35.8010   63.6326 H   0  0  0  0  0  0  0  0  0  0  0  0
   32.4023   37.9978   63.5865 H   0  0  0  0  0  0  0  0  0  0  0  0
   32.1394   37.0935   65.0969 H   0  0  0  0  0  0  0  0  0  0  0  0
   28.3387   36.0836   62.2412 H   0  0  0  0  0  0  0  0  0  0  0  0
   28.3186   36.2773   59.7026 H   0  0  0  0  0  0  0  0  0  0  0  0
   30.3371   37.4689   58.7306 H   0  0  0  0  0  0  0  0  0  0  0  0
   31.1398   40.6071   64.5804 H   0  0  0  0  0  0  0  0  0  0  0  0
   31.9984   41.4996   66.7048 H   0  0  0  0  0  0  0  0  0  0  0  0
   31.7164   40.2130   68.7847 H   0  0  0  0  0  0  0  0  0  0  0  0
   30.5607   38.0482   68.7499 H   0  0  0  0  0  0  0  0  0  0  0  0
   28.6447   37.0382   68.6742 H   0  0  0  0  0  0  0  0  0  0  0  0
   27.7623   34.6113   68.2617 H   0  0  0  0  0  0  0  0  0  0  0  0
   28.4878   33.8809   65.7974 H   0  0  0  0  0  0  0  0  0  0  0  0
  1  2  1  0  0  0  0
  1 23  1  0  0  0  0
  1 24  1  0  0  0  0
  1 25  1  0  0  0  0
  2 26  1  0  0  0  0
  2 27  1  0  0  0  0
  3  2  1  1  0  0  0
  3 21  1  0  0  0  0
  3  4  1  0  0  0  0
  3  9  1  0  0  0  0
  4  8  1  0  0  0  0
  4  5  2  0  0  0  0
  5  6  1  0  0  0  0
  5 28  1  0  0  0  0
  6  7  2  0  0  0  0
  6 29  1  0  0  0  0
  7  8  1  0  0  0  0
  7 30  1  0  0  0  0
  9 10  1  0  0  0  0
 10 15  2  0  0  0  0
 10 11  1  0  0  0  0
 11 12  2  0  0  0  0
 11 31  1  0  0  0  0
 12 13  1  0  0  0  0
 12 32  1  0  0  0  0
 13 14  2  0  0  0  0
 13 33  1  0  0  0  0
 14 15  1  0  0  0  0
 14 34  1  0  0  0  0
 15 16  1  0  0  0  0
 16 20  1  0  0  0  0
 16 17  1  0  0  0  0
 17 18  2  0  0  0  0
 17 35  1  0  0  0  0
 18 19  1  0  0  0  0
 18 36  1  0  0  0  0
 19 20  2  0  0  0  0
 19 37  1  0  0  0  0
 20 21  1  0  0  0  0
 21 22  2  0  0  0  0
M  END
$$$$
