ZINC000000043064      none
 OpenBabel11202420153D

 39 40  0  0  0  0  0  0  0  0999 V2000
   28.6291   38.7472   70.1832 C   0  0  0  0  0  0  0  0  0  0  0  0
   29.3010   38.8859   68.8887 N   0  0  0  0  0  0  0  0  0  0  0  0
   29.7104   37.7890   68.2211 C   0  0  0  0  0  0  0  0  0  0  0  0
   29.5220   36.6837   68.6933 O   0  0  0  0  0  0  0  0  0  0  0  0
   30.3842   37.9282   66.9226 C   0  0  0  0  0  0  0  0  0  0  0  0
   29.8472   37.3612   65.8173 C   0  0  0  0  0  0  0  0  0  0  0  0
   30.4915   37.5470   64.5088 C   0  0  0  0  0  0  0  0  0  0  0  0
   31.4604   36.6399   64.0665 C   0  0  0  0  0  0  0  0  0  0  0  0
   32.0599   36.8207   62.8388 C   0  0  0  0  0  0  0  0  0  0  0  0
   31.7065   37.8968   62.0421 C   0  0  0  0  0  0  0  0  0  0  0  0
   30.7503   38.7997   62.4697 C   0  0  0  0  0  0  0  0  0  0  0  0
   30.1346   38.6302   63.6952 C   0  0  0  0  0  0  0  0  0  0  0  0
   29.1960   39.5091   64.1097 F   0  0  0  0  0  0  0  0  0  0  0  0
   31.5805   38.6466   66.8291 N   0  0  0  0  0  0  0  0  0  0  0  0
   31.6138   39.9484   67.1764 C   0  0  0  0  0  0  0  0  0  0  0  0
   30.6038   40.4982   67.5711 O   0  0  0  0  0  0  0  0  0  0  0  0
   32.8782   40.7077   67.0775 C   0  0  0  0  0  0  0  0  0  0  0  0
   34.1030   40.0466   67.1837 C   0  0  0  0  0  0  0  0  0  0  0  0
   35.2793   40.7613   67.0910 C   0  0  0  0  0  0  0  0  0  0  0  0
   35.2469   42.1303   66.8937 C   0  0  0  0  0  0  0  0  0  0  0  0
   36.5130   42.8910   66.7962 N   0  0  0  0  0  0  0  0  0  0  0  0
   37.5803   42.3115   66.8896 O   0  0  0  0  0  0  0  0  0  0  0  0
   36.4876   44.0955   66.6174 O   0  0  0  0  0  0  0  0  0  0  0  0
   34.0362   42.7925   66.7929 C   0  0  0  0  0  0  0  0  0  0  0  0
   32.8526   42.0890   66.8781 C   0  0  0  0  0  0  0  0  0  0  0  0
   27.7196   38.1595   70.0593 H   0  0  0  0  0  0  0  0  0  0  0  0
   29.2940   38.2442   70.8855 H   0  0  0  0  0  0  0  0  0  0  0  0
   28.3741   39.7346   70.5679 H   0  0  0  0  0  0  0  0  0  0  0  0
   29.4511   39.7671   68.5122 H   0  0  0  0  0  0  0  0  0  0  0  0
   28.9454   36.7723   65.8964 H   0  0  0  0  0  0  0  0  0  0  0  0
   31.7382   35.7999   64.6860 H   0  0  0  0  0  0  0  0  0  0  0  0
   32.8081   36.1210   62.4970 H   0  0  0  0  0  0  0  0  0  0  0  0
   32.1808   38.0319   61.0811 H   0  0  0  0  0  0  0  0  0  0  0  0
   30.4805   39.6364   61.8423 H   0  0  0  0  0  0  0  0  0  0  0  0
   32.3863   38.2079   66.5142 H   0  0  0  0  0  0  0  0  0  0  0  0
   34.1298   38.9780   67.3384 H   0  0  0  0  0  0  0  0  0  0  0  0
   36.2277   40.2509   67.1730 H   0  0  0  0  0  0  0  0  0  0  0  0
   34.0178   43.8619   66.6430 H   0  0  0  0  0  0  0  0  0  0  0  0
   31.9083   42.6064   66.7952 H   0  0  0  0  0  0  0  0  0  0  0  0
  1  2  1  0  0  0  0
  1 26  1  0  0  0  0
  1 27  1  0  0  0  0
  1 28  1  0  0  0  0
  2  3  1  0  0  0  0
  2 29  1  0  0  0  0
  3  4  2  0  0  0  0
  3  5  1  0  0  0  0
  5  6  2  0  0  0  0
  5 14  1  0  0  0  0
  6  7  1  0  0  0  0
  6 30  1  0  0  0  0
  7 12  2  0  0  0  0
  7  8  1  0  0  0  0
  8  9  2  0  0  0  0
  8 31  1  0  0  0  0
  9 10  1  0  0  0  0
  9 32  1  0  0  0  0
 10 11  2  0  0  0  0
 10 33  1  0  0  0  0
 11 12  1  0  0  0  0
 11 34  1  0  0  0  0
 12 13  1  0  0  0  0
 14 15  1  0  0  0  0
 14 35  1  0  0  0  0
 15 16  2  0  0  0  0
 15 17  1  0  0  0  0
 17 25  2  0  0  0  0
 17 18  1  0  0  0  0
 18 19  2  0  0  0  0
 18 36  1  0  0  0  0
 19 20  1  0  0  0  0
 19 37  1  0  0  0  0
 20 21  1  0  0  0  0
 20 24  2  0  0  0  0
 21 22  2  0  0  0  0
 21 23  2  0  0  0  0
 24 25  1  0  0  0  0
 24 38  1  0  0  0  0
 25 39  1  0  0  0  0
M  END
$$$$
