ZINC000000021552      none
 OpenBabel11202420153D

 35 38  0  0  0  0  0  0  0  0999 V2000
   34.7464   31.7776   52.8136 C   0  0  0  0  0  0  0  0  0  0  0  0
   34.9809   31.3892   54.1201 C   0  0  0  0  0  0  0  0  0  0  0  0
   34.1485   31.8261   55.1318 C   0  0  0  0  0  0  0  0  0  0  0  0
   33.0750   32.6565   54.8359 C   0  0  0  0  0  0  0  0  0  0  0  0
   32.2307   33.1006   55.8574 N   0  0  0  0  0  0  0  0  0  0  0  0
   32.5104   34.2769   56.5208 C   0  0  0  0  0  0  0  0  0  0  0  0
   32.1396   34.4429   57.8277 C   0  0  0  0  0  0  0  0  0  0  0  0
   32.4347   35.6549   58.4712 C   0  0  0  0  0  0  0  0  0  0  0  0
   32.0363   35.8572   59.8844 C   0  0  0  0  0  0  0  0  0  0  0  0
   31.7393   37.1370   60.3514 C   0  0  0  0  0  0  0  0  0  0  0  0
   31.3630   37.3183   61.6666 C   0  0  0  0  0  0  0  0  0  0  0  0
   31.2917   36.2355   62.5241 C   0  0  0  0  0  0  0  0  0  0  0  0
   31.5909   34.9639   62.0679 C   0  0  0  0  0  0  0  0  0  0  0  0
   31.9626   34.7693   60.7534 C   0  0  0  0  0  0  0  0  0  0  0  0
   33.0729   36.6169   57.8205 N   0  0  0  0  0  0  0  0  0  0  0  0
   33.4372   36.4600   56.5444 C   0  0  0  0  0  0  0  0  0  0  0  0
   34.0681   37.2573   55.6883 N   0  0  0  0  0  0  0  0  0  0  0  0
   34.2007   36.6436   54.5190 C   0  0  0  0  0  0  0  0  0  0  0  0
   33.6665   35.4485   54.5854 N   0  0  0  0  0  0  0  0  0  0  0  0
   33.1621   35.2953   55.8835 N   0  0  0  0  0  0  0  0  0  0  0  0
   32.8391   33.0400   53.5218 C   0  0  0  0  0  0  0  0  0  0  0  0
   33.6786   32.6041   52.5156 C   0  0  0  0  0  0  0  0  0  0  0  0
   35.3988   31.4340   52.0243 H   0  0  0  0  0  0  0  0  0  0  0  0
   35.8160   30.7438   54.3495 H   0  0  0  0  0  0  0  0  0  0  0  0
   34.3318   31.5222   56.1518 H   0  0  0  0  0  0  0  0  0  0  0  0
   31.4479   32.5815   56.0997 H   0  0  0  0  0  0  0  0  0  0  0  0
   31.6232   33.6544   58.3549 H   0  0  0  0  0  0  0  0  0  0  0  0
   31.7991   37.9839   59.6840 H   0  0  0  0  0  0  0  0  0  0  0  0
   31.1281   38.3085   62.0283 H   0  0  0  0  0  0  0  0  0  0  0  0
   31.0014   36.3831   63.5539 H   0  0  0  0  0  0  0  0  0  0  0  0
   31.5334   34.1221   62.7420 H   0  0  0  0  0  0  0  0  0  0  0  0
   32.1954   33.7764   60.3981 H   0  0  0  0  0  0  0  0  0  0  0  0
   34.6761   37.0648   53.6456 H   0  0  0  0  0  0  0  0  0  0  0  0
   32.0026   33.6818   53.2877 H   0  0  0  0  0  0  0  0  0  0  0  0
   33.4984   32.9054   51.4943 H   0  0  0  0  0  0  0  0  0  0  0  0
  1 22  2  0  0  0  0
  1  2  1  0  0  0  0
  1 23  1  0  0  0  0
  2  3  2  0  0  0  0
  2 24  1  0  0  0  0
  3  4  1  0  0  0  0
  3 25  1  0  0  0  0
  4  5  1  0  0  0  0
  4 21  2  0  0  0  0
  5  6  1  0  0  0  0
  5 26  1  0  0  0  0
  6 20  1  0  0  0  0
  6  7  2  0  0  0  0
  7  8  1  0  0  0  0
  7 27  1  0  0  0  0
  8  9  1  0  0  0  0
  8 15  2  0  0  0  0
  9 14  2  0  0  0  0
  9 10  1  0  0  0  0
 10 11  2  0  0  0  0
 10 28  1  0  0  0  0
 11 12  1  0  0  0  0
 11 29  1  0  0  0  0
 12 13  2  0  0  0  0
 12 30  1  0  0  0  0
 13 14  1  0  0  0  0
 13 31  1  0  0  0  0
 14 32  1  0  0  0  0
 15 16  1  0  0  0  0
 16 20  1  0  0  0  0
 16 17  2  0  0  0  0
 17 18  1  0  0  0  0
 18 19  2  0  0  0  0
 18 33  1  0  0  0  0
 19 20  1  0  0  0  0
 21 22  1  0  0  0  0
 21 34  1  0  0  0  0
 22 35  1  0  0  0  0
M  END
$$$$
