ZINC000000042321      none
 OpenBabel11202420153D

 34 37  0  0  0  0  0  0  0  0999 V2000
   35.1538   39.0781   52.6499 C   0  0  0  0  0  0  0  0  0  0  0  0
   35.0717   40.3597   53.1902 C   0  0  0  0  0  0  0  0  0  0  0  0
   34.6349   40.5682   54.4082 N   0  0  0  0  0  0  0  0  0  0  0  0
   34.2465   39.5563   55.1909 C   0  0  0  0  0  0  0  0  0  0  0  0
   33.7739   39.7911   56.4948 C   0  0  0  0  0  0  0  0  0  0  0  0
   33.3879   38.7481   57.2757 C   0  0  0  0  0  0  0  0  0  0  0  0
   33.4421   37.4323   56.7997 C   0  0  0  0  0  0  0  0  0  0  0  0
   33.0337   36.3808   57.6231 N   0  0  0  0  0  0  0  0  0  0  0  0
   32.5512   36.6568   58.9785 C   0  0  0  0  0  0  0  0  0  0  0  0
   32.1866   35.3978   59.6328 N   0  0  0  0  0  0  0  0  0  0  0  0
   32.2658   34.1109   59.0801 N   0  0  0  0  0  0  0  0  0  0  0  0
   31.8658   33.2479   59.9462 N   0  0  0  0  0  0  0  0  0  0  0  0
   31.4965   33.8652   61.0860 C   0  0  0  0  0  0  0  0  0  0  0  0
   30.9939   33.4001   62.3087 C   0  0  0  0  0  0  0  0  0  0  0  0
   30.7042   34.2868   63.3040 C   0  0  0  0  0  0  0  0  0  0  0  0
   30.9017   35.6495   63.1209 C   0  0  0  0  0  0  0  0  0  0  0  0
   31.3902   36.1285   61.9377 C   0  0  0  0  0  0  0  0  0  0  0  0
   31.6942   35.2455   60.9070 C   0  0  0  0  0  0  0  0  0  0  0  0
   33.8953   37.1662   55.5262 C   0  0  0  0  0  0  0  0  0  0  0  0
   34.3043   38.2268   54.7034 C   0  0  0  0  0  0  0  0  0  0  0  0
   34.7730   37.9989   53.3953 C   0  0  0  0  0  0  0  0  0  0  0  0
   35.5177   38.9381   51.6427 H   0  0  0  0  0  0  0  0  0  0  0  0
   35.3766   41.2038   52.5894 H   0  0  0  0  0  0  0  0  0  0  0  0
   33.7211   40.8000   56.8766 H   0  0  0  0  0  0  0  0  0  0  0  0
   33.0296   38.9372   58.2768 H   0  0  0  0  0  0  0  0  0  0  0  0
   33.0695   35.4679   57.2974 H   0  0  0  0  0  0  0  0  0  0  0  0
   33.3375   37.1493   59.5508 H   0  0  0  0  0  0  0  0  0  0  0  0
   31.6774   37.3064   58.9280 H   0  0  0  0  0  0  0  0  0  0  0  0
   30.8366   32.3428   62.4625 H   0  0  0  0  0  0  0  0  0  0  0  0
   30.3166   33.9252   64.2450 H   0  0  0  0  0  0  0  0  0  0  0  0
   30.6664   36.3366   63.9201 H   0  0  0  0  0  0  0  0  0  0  0  0
   31.5408   37.1895   61.8039 H   0  0  0  0  0  0  0  0  0  0  0  0
   33.9352   36.1495   55.1639 H   0  0  0  0  0  0  0  0  0  0  0  0
   34.8295   36.9984   52.9926 H   0  0  0  0  0  0  0  0  0  0  0  0
  1 21  2  0  0  0  0
  1  2  1  0  0  0  0
  1 22  1  0  0  0  0
  2  3  2  0  0  0  0
  2 23  1  0  0  0  0
  3  4  1  0  0  0  0
  4 20  2  0  0  0  0
  4  5  1  0  0  0  0
  5  6  2  0  0  0  0
  5 24  1  0  0  0  0
  6  7  1  0  0  0  0
  6 25  1  0  0  0  0
  7  8  1  0  0  0  0
  7 19  2  0  0  0  0
  8  9  1  0  0  0  0
  8 26  1  0  0  0  0
  9 10  1  0  0  0  0
  9 27  1  0  0  0  0
  9 28  1  0  0  0  0
 10 18  1  0  0  0  0
 10 11  1  0  0  0  0
 11 12  2  0  0  0  0
 12 13  1  0  0  0  0
 13 18  2  0  0  0  0
 13 14  1  0  0  0  0
 14 15  2  0  0  0  0
 14 29  1  0  0  0  0
 15 16  1  0  0  0  0
 15 30  1  0  0  0  0
 16 17  2  0  0  0  0
 16 31  1  0  0  0  0
 17 18  1  0  0  0  0
 17 32  1  0  0  0  0
 19 20  1  0  0  0  0
 19 33  1  0  0  0  0
 20 21  1  0  0  0  0
 21 34  1  0  0  0  0
M  END
$$$$
