ZINC000000047418      none
 OpenBabel11202420153D

 40 44  0  0  1  0  0  0  0  0999 V2000
   34.8875   40.7914   67.1278 C   0  0  0  0  0  0  0  0  0  0  0  0
   34.3044   40.9181   68.5117 C   0  0  0  0  0  0  0  0  0  0  0  0
   34.9231   41.4960   69.3795 O   0  0  0  0  0  0  0  0  0  0  0  0
   33.1026   40.3923   68.7828 O   0  0  0  0  0  0  0  0  0  0  0  0
   32.5293   39.8240   67.8706 N   0  0  0  0  0  0  0  0  0  0  0  0
   31.6813   40.4586   67.0133 C   0  0  0  0  0  0  0  0  0  0  0  0
   31.2016   41.5632   67.1554 O   0  0  0  0  0  0  0  0  0  0  0  0
   31.4555   39.5105   65.8388 C   0  0  2  0  0  0  0  0  0  0  0  0
   32.1923   39.6089   65.0416 H   0  0  0  0  0  0  0  0  0  0  0  0
   29.9986   39.4620   65.3403 C   0  0  2  0  0  0  0  0  0  0  0  0
   29.0692   38.8517   66.3609 C   0  0  0  0  0  0  0  0  0  0  0  0
   27.9383   39.4285   66.8367 C   0  0  0  0  0  0  0  0  0  0  0  0
   27.1211   38.7226   67.7062 C   0  0  0  0  0  0  0  0  0  0  0  0
   27.4333   37.4295   68.0836 C   0  0  0  0  0  0  0  0  0  0  0  0
   28.5996   36.8325   67.6164 C   0  0  0  0  0  0  0  0  0  0  0  0
   29.4053   37.5455   66.7884 C   0  0  0  0  0  0  0  0  0  0  0  0
   30.7675   37.0621   66.2472 C   0  0  1  0  0  0  0  0  0  0  0  0
   30.5571   37.1530   64.7356 C   0  0  0  0  0  0  0  0  0  0  0  0
   30.7410   36.1065   63.8755 C   0  0  0  0  0  0  0  0  0  0  0  0
   30.4432   36.2836   62.5311 C   0  0  0  0  0  0  0  0  0  0  0  0
   29.9691   37.4972   62.0682 C   0  0  0  0  0  0  0  0  0  0  0  0
   29.7973   38.5628   62.9436 C   0  0  0  0  0  0  0  0  0  0  0  0
   30.1025   38.3834   64.2588 C   0  0  0  0  0  0  0  0  0  0  0  0
   31.5882   38.2140   66.6857 C   0  0  1  0  0  0  0  0  0  0  0  0
   30.8197   38.6375   67.3323 H   0  0  0  0  0  0  0  0  0  0  0  0
   32.6727   38.4793   67.6132 C   0  0  0  0  0  0  0  0  0  0  0  0
   33.4997   37.7084   68.0518 O   0  0  0  0  0  0  0  0  0  0  0  0
   35.4760   39.8762   67.0639 H   0  0  0  0  0  0  0  0  0  0  0  0
   34.0809   40.7566   66.3955 H   0  0  0  0  0  0  0  0  0  0  0  0
   35.5273   41.6499   66.9231 H   0  0  0  0  0  0  0  0  0  0  0  0
   29.6449   40.4220   64.9641 H   0  0  0  0  0  0  0  0  0  0  0  0
   27.6849   40.4371   66.5453 H   0  0  0  0  0  0  0  0  0  0  0  0
   26.2277   39.1894   68.0939 H   0  0  0  0  0  0  0  0  0  0  0  0
   26.7721   36.8834   68.7400 H   0  0  0  0  0  0  0  0  0  0  0  0
   28.8586   35.8248   67.9061 H   0  0  0  0  0  0  0  0  0  0  0  0
   31.1097   36.0905   66.6034 H   0  0  0  0  0  0  0  0  0  0  0  0
   31.1120   35.1583   64.2356 H   0  0  0  0  0  0  0  0  0  0  0  0
   30.5829   35.4653   61.8402 H   0  0  0  0  0  0  0  0  0  0  0  0
   29.7308   37.6174   61.0216 H   0  0  0  0  0  0  0  0  0  0  0  0
   29.4295   39.5141   62.5883 H   0  0  0  0  0  0  0  0  0  0  0  0
  1  2  1  0  0  0  0
  1 28  1  0  0  0  0
  1 29  1  0  0  0  0
  1 30  1  0  0  0  0
  2  3  2  0  0  0  0
  2  4  1  0  0  0  0
  4  5  1  0  0  0  0
  5 26  1  0  0  0  0
  5  6  1  0  0  0  0
  6  7  2  0  0  0  0
  6  8  1  0  0  0  0
  8  9  1  6  0  0  0
  8 24  1  0  0  0  0
  8 10  1  0  0  0  0
 10 23  1  0  0  0  0
 10 11  1  0  0  0  0
 10 31  1  6  0  0  0
 11 16  2  0  0  0  0
 11 12  1  0  0  0  0
 12 13  2  0  0  0  0
 12 32  1  0  0  0  0
 13 14  1  0  0  0  0
 13 33  1  0  0  0  0
 14 15  2  0  0  0  0
 14 34  1  0  0  0  0
 15 16  1  0  0  0  0
 15 35  1  0  0  0  0
 16 17  1  0  0  0  0
 17 18  1  0  0  0  0
 17 24  1  0  0  0  0
 17 36  1  1  0  0  0
 18 23  2  0  0  0  0
 18 19  1  0  0  0  0
 19 20  2  0  0  0  0
 19 37  1  0  0  0  0
 20 21  1  0  0  0  0
 20 38  1  0  0  0  0
 21 22  2  0  0  0  0
 21 39  1  0  0  0  0
 22 23  1  0  0  0  0
 22 40  1  0  0  0  0
 24 25  1  1  0  0  0
 24 26  1  0  0  0  0
 26 27  2  0  0  0  0
M  END
$$$$
