ZINC000000032764      none
 OpenBabel11202420153D

 33 34  0  0  1  0  0  0  0  0999 V2000
   32.6117   38.6228   66.5911 N   0  3  0  0  0  0  0  0  0  0  0  0
   32.8956   39.2801   65.8800 H   0  0  0  0  0  0  0  0  0  0  0  0
   32.2016   39.1219   67.3660 H   0  0  0  0  0  0  0  0  0  0  0  0
   33.4167   38.1059   66.9120 H   0  0  0  0  0  0  0  0  0  0  0  0
   31.6235   37.6915   66.0305 C   0  0  1  0  0  0  0  0  0  0  0  0
   32.0666   37.1521   65.1933 H   0  0  0  0  0  0  0  0  0  0  0  0
   31.1930   36.6949   67.1086 C   0  0  0  0  0  0  0  0  0  0  0  0
   31.0465   37.4121   68.4260 C   0  0  0  0  0  0  0  0  0  0  0  0
   29.9703   37.4208   68.9988 O   0  0  0  0  0  0  0  0  0  0  0  0
   32.0041   37.9838   68.9186 O   0  0  0  0  0  1  0  0  0  0  0  0
   30.4212   38.4634   65.5511 C   0  0  0  0  0  0  0  0  0  0  0  0
   29.6276   39.2437   66.3123 C   0  0  0  0  0  0  0  0  0  0  0  0
   28.6276   39.7759   65.4737 C   0  0  0  0  0  0  0  0  0  0  0  0
   28.8469   39.3012   64.2307 C   0  0  0  0  0  0  0  0  0  0  0  0
   29.9477   38.4938   64.2705 N   0  0  0  0  0  0  0  0  0  0  0  0
   30.5000   37.8101   63.1781 C   0  0  0  0  0  0  0  0  0  0  0  0
   30.9504   38.5164   62.0711 C   0  0  0  0  0  0  0  0  0  0  0  0
   31.4988   37.8405   60.9986 C   0  0  0  0  0  0  0  0  0  0  0  0
   31.5896   36.4609   61.0224 C   0  0  0  0  0  0  0  0  0  0  0  0
   32.1727   35.7393   59.8691 N   0  0  0  0  0  0  0  0  0  0  0  0
   32.5719   36.3605   58.9005 O   0  0  0  0  0  0  0  0  0  0  0  0
   32.2533   34.5241   59.8885 O   0  0  0  0  0  0  0  0  0  0  0  0
   31.1370   35.7543   62.1213 C   0  0  0  0  0  0  0  0  0  0  0  0
   30.5924   36.4251   63.1991 C   0  0  0  0  0  0  0  0  0  0  0  0
   30.2386   36.2481   66.8300 H   0  0  0  0  0  0  0  0  0  0  0  0
   31.9466   35.9131   67.2025 H   0  0  0  0  0  0  0  0  0  0  0  0
   29.7380   39.4274   67.3709 H   0  0  0  0  0  0  0  0  0  0  0  0
   27.8316   40.4421   65.7718 H   0  0  0  0  0  0  0  0  0  0  0  0
   28.2568   39.5246   63.3542 H   0  0  0  0  0  0  0  0  0  0  0  0
   30.8757   39.5937   62.0502 H   0  0  0  0  0  0  0  0  0  0  0  0
   31.8534   38.3899   60.1391 H   0  0  0  0  0  0  0  0  0  0  0  0
   31.2092   34.6769   62.1370 H   0  0  0  0  0  0  0  0  0  0  0  0
   30.2392   35.8726   64.0571 H   0  0  0  0  0  0  0  0  0  0  0  0
  1  2  1  0  0  0  0
  1  3  1  0  0  0  0
  1  4  1  0  0  0  0
  1  5  1  0  0  0  0
  5  6  1  6  0  0  0
  5  7  1  0  0  0  0
  5 11  1  0  0  0  0
  7  8  1  0  0  0  0
  7 25  1  0  0  0  0
  7 26  1  0  0  0  0
  8  9  2  0  0  0  0
  8 10  1  0  0  0  0
 11 15  1  0  0  0  0
 11 12  2  0  0  0  0
 12 13  1  0  0  0  0
 12 27  1  0  0  0  0
 13 14  2  0  0  0  0
 13 28  1  0  0  0  0
 14 15  1  0  0  0  0
 14 29  1  0  0  0  0
 15 16  1  0  0  0  0
 16 24  2  0  0  0  0
 16 17  1  0  0  0  0
 17 18  2  0  0  0  0
 17 30  1  0  0  0  0
 18 19  1  0  0  0  0
 18 31  1  0  0  0  0
 19 20  1  0  0  0  0
 19 23  2  0  0  0  0
 20 21  2  0  0  0  0
 20 22  2  0  0  0  0
 23 24  1  0  0  0  0
 23 32  1  0  0  0  0
 24 33  1  0  0  0  0
M  CHG  1   1   1
M  END
$$$$
