ZINC000000010228      none
 OpenBabel11202420153D

 43 46  0  0  0  0  0  0  0  0999 V2000
   32.6548   32.8197   61.6778 C   0  0  0  0  0  0  0  0  0  0  0  0
   31.9050   34.0899   61.9867 C   0  0  0  0  0  0  0  0  0  0  0  0
   31.4933   34.3529   63.2788 C   0  0  0  0  0  0  0  0  0  0  0  0
   30.7998   35.5149   63.5621 C   0  0  0  0  0  0  0  0  0  0  0  0
   30.5211   36.4207   62.5545 C   0  0  0  0  0  0  0  0  0  0  0  0
   30.9349   36.1666   61.2618 C   0  0  0  0  0  0  0  0  0  0  0  0
   31.6318   34.9998   60.9738 C   0  0  0  0  0  0  0  0  0  0  0  0
   32.0521   34.7396   59.6662 N   0  0  0  0  0  0  0  0  0  0  0  0
   32.3621   35.7881   58.8170 C   0  0  0  0  0  0  0  0  0  0  0  0
   32.7593   35.5090   57.5786 N   0  0  0  0  0  0  0  0  0  0  0  0
   33.0696   36.4690   56.7198 C   0  0  0  0  0  0  0  0  0  0  0  0
   33.4808   36.1658   55.4384 N   0  0  0  0  0  0  0  0  0  0  0  0
   33.5741   34.8318   55.0315 C   0  0  0  0  0  0  0  0  0  0  0  0
   32.8112   34.3745   53.9645 C   0  0  0  0  0  0  0  0  0  0  0  0
   32.9094   33.0570   53.5621 C   0  0  0  0  0  0  0  0  0  0  0  0
   33.7585   32.1909   54.2264 C   0  0  0  0  0  0  0  0  0  0  0  0
   34.5151   32.6415   55.2925 C   0  0  0  0  0  0  0  0  0  0  0  0
   34.4257   33.9591   55.6967 C   0  0  0  0  0  0  0  0  0  0  0  0
   32.9689   37.8154   57.1514 C   0  0  0  0  0  0  0  0  0  0  0  0
   33.2766   38.8892   56.3094 C   0  0  0  0  0  0  0  0  0  0  0  0
   33.1614   40.1654   56.7778 C   0  0  0  0  0  0  0  0  0  0  0  0
   32.7418   40.4129   58.0815 C   0  0  0  0  0  0  0  0  0  0  0  0
   32.4354   39.3884   58.9272 C   0  0  0  0  0  0  0  0  0  0  0  0
   32.5418   38.0650   58.4782 C   0  0  0  0  0  0  0  0  0  0  0  0
   32.2505   37.0222   59.2699 N   0  0  0  0  0  0  0  0  0  0  0  0
   33.7249   32.9921   61.7935 H   0  0  0  0  0  0  0  0  0  0  0  0
   32.3371   32.0343   62.3636 H   0  0  0  0  0  0  0  0  0  0  0  0
   32.4447   32.5139   60.6529 H   0  0  0  0  0  0  0  0  0  0  0  0
   31.7092   33.6477   64.0679 H   0  0  0  0  0  0  0  0  0  0  0  0
   30.4752   35.7157   64.5724 H   0  0  0  0  0  0  0  0  0  0  0  0
   29.9796   37.3277   62.7791 H   0  0  0  0  0  0  0  0  0  0  0  0
   30.7172   36.8744   60.4756 H   0  0  0  0  0  0  0  0  0  0  0  0
   32.1267   33.8242   59.3538 H   0  0  0  0  0  0  0  0  0  0  0  0
   33.7050   36.8784   54.8197 H   0  0  0  0  0  0  0  0  0  0  0  0
   32.1448   35.0494   53.4479 H   0  0  0  0  0  0  0  0  0  0  0  0
   32.3198   32.7019   52.7298 H   0  0  0  0  0  0  0  0  0  0  0  0
   33.8306   31.1602   53.9120 H   0  0  0  0  0  0  0  0  0  0  0  0
   35.1771   31.9625   55.8095 H   0  0  0  0  0  0  0  0  0  0  0  0
   35.0169   34.3103   56.5296 H   0  0  0  0  0  0  0  0  0  0  0  0
   33.6035   38.7093   55.2959 H   0  0  0  0  0  0  0  0  0  0  0  0
   33.4032   40.9946   56.1294 H   0  0  0  0  0  0  0  0  0  0  0  0
   32.6589   41.4322   58.4289 H   0  0  0  0  0  0  0  0  0  0  0  0
   32.1111   39.5954   59.9363 H   0  0  0  0  0  0  0  0  0  0  0  0
  1  2  1  0  0  0  0
  1 26  1  0  0  0  0
  1 27  1  0  0  0  0
  1 28  1  0  0  0  0
  2  7  2  0  0  0  0
  2  3  1  0  0  0  0
  3  4  2  0  0  0  0
  3 29  1  0  0  0  0
  4  5  1  0  0  0  0
  4 30  1  0  0  0  0
  5  6  2  0  0  0  0
  5 31  1  0  0  0  0
  6  7  1  0  0  0  0
  6 32  1  0  0  0  0
  7  8  1  0  0  0  0
  8  9  1  0  0  0  0
  8 33  1  0  0  0  0
  9 25  2  0  0  0  0
  9 10  1  0  0  0  0
 10 11  2  0  0  0  0
 11 12  1  0  0  0  0
 11 19  1  0  0  0  0
 12 13  1  0  0  0  0
 12 34  1  0  0  0  0
 13 18  2  0  0  0  0
 13 14  1  0  0  0  0
 14 15  2  0  0  0  0
 14 35  1  0  0  0  0
 15 16  1  0  0  0  0
 15 36  1  0  0  0  0
 16 17  2  0  0  0  0
 16 37  1  0  0  0  0
 17 18  1  0  0  0  0
 17 38  1  0  0  0  0
 18 39  1  0  0  0  0
 19 24  2  0  0  0  0
 19 20  1  0  0  0  0
 20 21  2  0  0  0  0
 20 40  1  0  0  0  0
 21 22  1  0  0  0  0
 21 41  1  0  0  0  0
 22 23  2  0  0  0  0
 22 42  1  0  0  0  0
 23 24  1  0  0  0  0
 23 43  1  0  0  0  0
 24 25  1  0  0  0  0
M  END
$$$$
