ZINC000000050889      none
 OpenBabel11202420153D

 25 26  0  0  1  0  0  0  0  0999 V2000
   30.6706   36.7949   60.6358 C   0  0  0  0  0  0  0  0  0  0  0  0
   32.0020   36.3284   60.4081 O   0  0  0  0  0  0  0  0  0  0  0  0
   32.3236   35.9766   59.1344 C   0  0  0  0  0  0  0  0  0  0  0  0
   32.1261   34.6745   58.7065 C   0  0  0  0  0  0  0  0  0  0  0  0
   32.4564   34.3068   57.4112 C   0  0  0  0  0  0  0  0  0  0  0  0
   32.9772   35.2341   56.5420 C   0  0  0  0  0  0  0  0  0  0  0  0
   33.1797   36.5564   56.9540 C   0  0  0  0  0  0  0  0  0  0  0  0
   32.8459   36.9272   58.2624 C   0  0  0  0  0  0  0  0  0  0  0  0
   33.0358   38.2049   58.6795 O   0  0  0  0  0  0  0  0  0  0  0  0
   32.3310   39.2289   57.9748 C   0  0  0  0  0  0  0  0  0  0  0  0
   33.7423   37.3065   55.8206 C   0  0  0  0  0  0  0  0  0  0  0  0
   34.0354   38.4854   55.8449 O   0  0  0  0  0  0  0  0  0  0  0  0
   33.8858   36.5011   54.7546 O   0  0  0  0  0  0  0  0  0  0  0  0
   33.4303   35.1654   55.1049 C   0  0  2  0  0  0  0  0  0  0  0  0
   34.2484   34.4524   55.0033 H   0  0  0  0  0  0  0  0  0  0  0  0
   32.3397   34.7830   54.2645 O   0  0  0  0  0  0  0  0  0  0  0  0
   29.9604   36.0158   60.3589 H   0  0  0  0  0  0  0  0  0  0  0  0
   30.5472   37.0408   61.6905 H   0  0  0  0  0  0  0  0  0  0  0  0
   30.4888   37.6838   60.0317 H   0  0  0  0  0  0  0  0  0  0  0  0
   31.7166   33.9416   59.3859 H   0  0  0  0  0  0  0  0  0  0  0  0
   32.3036   33.2887   57.0847 H   0  0  0  0  0  0  0  0  0  0  0  0
   32.6256   39.2165   56.9254 H   0  0  0  0  0  0  0  0  0  0  0  0
   31.2583   39.0515   58.0531 H   0  0  0  0  0  0  0  0  0  0  0  0
   32.5714   40.1997   58.4082 H   0  0  0  0  0  0  0  0  0  0  0  0
   32.5622   34.7451   53.3242 H   0  0  0  0  0  0  0  0  0  0  0  0
  1  2  1  0  0  0  0
  1 17  1  0  0  0  0
  1 18  1  0  0  0  0
  1 19  1  0  0  0  0
  2  3  1  0  0  0  0
  3  8  2  0  0  0  0
  3  4  1  0  0  0  0
  4  5  2  0  0  0  0
  4 20  1  0  0  0  0
  5  6  1  0  0  0  0
  5 21  1  0  0  0  0
  6 14  1  0  0  0  0
  6  7  2  0  0  0  0
  7  8  1  0  0  0  0
  7 11  1  0  0  0  0
  8  9  1  0  0  0  0
  9 10  1  0  0  0  0
 10 22  1  0  0  0  0
 10 23  1  0  0  0  0
 10 24  1  0  0  0  0
 11 12  2  0  0  0  0
 11 13  1  0  0  0  0
 13 14  1  0  0  0  0
 14 15  1  6  0  0  0
 14 16  1  0  0  0  0
 16 25  1  0  0  0  0
M  END
$$$$
