ZINC000000008582      none
 OpenBabel11202420153D

 37 38  0  0  0  0  0  0  0  0999 V2000
   31.7628   36.3218   59.8192 S   0  0  0  0  0  0  0  0  0  0  0  0
   31.7384   37.8654   60.5590 C   0  0  0  0  0  0  0  0  0  0  0  0
   31.2035   38.0159   61.7869 N   0  0  0  0  0  0  0  0  0  0  0  0
   30.6429   36.8585   62.4884 C   0  0  0  0  0  0  0  0  0  0  0  0
   31.3918   36.6487   63.8060 C   0  0  0  0  0  0  0  0  0  0  0  0
   31.2471   37.8767   64.6674 C   0  0  0  0  0  0  0  0  0  0  0  0
   32.2096   38.1617   65.4846 C   0  0  0  0  0  0  0  0  0  0  0  0
   32.2067   39.3455   66.4069 C   0  0  0  0  0  0  0  0  0  0  0  0
   31.1494   40.3588   65.9629 C   0  0  0  0  0  0  0  0  0  0  0  0
   29.8278   39.6135   65.7374 C   0  0  0  0  0  0  0  0  0  0  0  0
   29.9934   38.6897   64.5287 C   0  0  0  0  0  0  0  0  0  0  0  0
   32.2541   38.9304   59.9135 N   0  0  0  0  0  0  0  0  0  0  0  0
   32.8123   38.7737   58.6461 C   0  0  0  0  0  0  0  0  0  0  0  0
   33.3529   39.8747   57.9908 C   0  0  0  0  0  0  0  0  0  0  0  0
   33.9043   39.7055   56.7335 C   0  0  0  0  0  0  0  0  0  0  0  0
   33.8962   38.4349   56.1716 C   0  0  0  0  0  0  0  0  0  0  0  0
   34.6353   38.1441   54.4556 Br  0  0  0  0  0  0  0  0  0  0  0  0
   33.3420   37.3863   56.8799 C   0  0  0  0  0  0  0  0  0  0  0  0
   32.8278   37.5775   58.0800 N   0  0  0  0  0  0  0  0  0  0  0  0
   31.1897   38.8906   62.2061 H   0  0  0  0  0  0  0  0  0  0  0  0
   29.5873   37.0350   62.6949 H   0  0  0  0  0  0  0  0  0  0  0  0
   30.7476   35.9702   61.8655 H   0  0  0  0  0  0  0  0  0  0  0  0
   30.9747   35.7874   64.3278 H   0  0  0  0  0  0  0  0  0  0  0  0
   32.4476   36.4721   63.5996 H   0  0  0  0  0  0  0  0  0  0  0  0
   33.0699   37.5090   65.5012 H   0  0  0  0  0  0  0  0  0  0  0  0
   33.1886   39.8188   66.3941 H   0  0  0  0  0  0  0  0  0  0  0  0
   31.9828   39.0100   67.4195 H   0  0  0  0  0  0  0  0  0  0  0  0
   31.4649   40.8344   65.0342 H   0  0  0  0  0  0  0  0  0  0  0  0
   31.0168   41.1135   66.7381 H   0  0  0  0  0  0  0  0  0  0  0  0
   29.0309   40.3314   65.5433 H   0  0  0  0  0  0  0  0  0  0  0  0
   29.5854   39.0220   66.6201 H   0  0  0  0  0  0  0  0  0  0  0  0
   30.0504   39.2896   63.6204 H   0  0  0  0  0  0  0  0  0  0  0  0
   29.1344   38.0214   64.4670 H   0  0  0  0  0  0  0  0  0  0  0  0
   32.2403   39.8049   60.3328 H   0  0  0  0  0  0  0  0  0  0  0  0
   33.3420   40.8488   58.4571 H   0  0  0  0  0  0  0  0  0  0  0  0
   34.3317   40.5421   56.2007 H   0  0  0  0  0  0  0  0  0  0  0  0
   33.3329   36.3967   56.4475 H   0  0  0  0  0  0  0  0  0  0  0  0
  1  2  2  0  0  0  0
  2  3  1  0  0  0  0
  2 12  1  0  0  0  0
  3  4  1  0  0  0  0
  3 20  1  0  0  0  0
  4  5  1  0  0  0  0
  4 21  1  0  0  0  0
  4 22  1  0  0  0  0
  5  6  1  0  0  0  0
  5 23  1  0  0  0  0
  5 24  1  0  0  0  0
  6 11  1  0  0  0  0
  6  7  2  0  0  0  0
  7  8  1  0  0  0  0
  7 25  1  0  0  0  0
  8  9  1  0  0  0  0
  8 26  1  0  0  0  0
  8 27  1  0  0  0  0
  9 10  1  0  0  0  0
  9 28  1  0  0  0  0
  9 29  1  0  0  0  0
 10 11  1  0  0  0  0
 10 30  1  0  0  0  0
 10 31  1  0  0  0  0
 11 32  1  0  0  0  0
 11 33  1  0  0  0  0
 12 13  1  0  0  0  0
 12 34  1  0  0  0  0
 13 19  2  0  0  0  0
 13 14  1  0  0  0  0
 14 15  2  0  0  0  0
 14 35  1  0  0  0  0
 15 16  1  0  0  0  0
 15 36  1  0  0  0  0
 16 17  1  0  0  0  0
 16 18  2  0  0  0  0
 18 19  1  0  0  0  0
 18 37  1  0  0  0  0
M  END
$$$$
