ZINC000000038507      none
 OpenBabel11202420153D

 48 49  0  0  0  0  0  0  0  0999 V2000
   34.9040   32.1582   53.9125 C   0  0  0  0  0  0  0  0  0  0  0  0
   33.7216   32.7977   53.1819 C   0  0  0  0  0  0  0  0  0  0  0  0
   33.5536   34.1790   53.6400 N   0  0  0  0  0  0  0  0  0  0  0  0
   33.6525   35.2849   52.6842 C   0  0  0  0  0  0  0  0  0  0  0  0
   32.3354   36.0633   52.6670 C   0  0  0  0  0  0  0  0  0  0  0  0
   33.2988   34.4420   54.9902 C   0  0  0  0  0  0  0  0  0  0  0  0
   32.6096   33.5142   55.7604 C   0  0  0  0  0  0  0  0  0  0  0  0
   32.3579   33.7741   57.0928 C   0  0  0  0  0  0  0  0  0  0  0  0
   32.7934   34.9632   57.6626 C   0  0  0  0  0  0  0  0  0  0  0  0
   32.5370   35.2272   59.0149 N   0  0  0  0  0  0  0  0  0  0  0  0
   32.4454   34.2102   59.8946 C   0  0  0  0  0  0  0  0  0  0  0  0
   32.5851   33.0664   59.5159 O   0  0  0  0  0  0  0  0  0  0  0  0
   32.1699   34.4941   61.3487 C   0  0  0  0  0  0  0  0  0  0  0  0
   32.0462   35.9044   61.5436 O   0  0  0  0  0  0  0  0  0  0  0  0
   31.2259   36.3195   62.5457 C   0  0  0  0  0  0  0  0  0  0  0  0
   31.4801   35.9392   63.8536 C   0  0  0  0  0  0  0  0  0  0  0  0
   30.6419   36.3575   64.8704 C   0  0  0  0  0  0  0  0  0  0  0  0
   29.5526   37.1599   64.5863 C   0  0  0  0  0  0  0  0  0  0  0  0
   29.2966   37.5477   63.2843 C   0  0  0  0  0  0  0  0  0  0  0  0
   30.1327   37.1319   62.2605 C   0  0  0  0  0  0  0  0  0  0  0  0
   29.8823   37.5124   60.9792 O   0  0  0  0  0  0  0  0  0  0  0  0
   29.0379   36.6604   60.2026 C   0  0  0  0  0  0  0  0  0  0  0  0
   33.4777   35.8931   56.8914 C   0  0  0  0  0  0  0  0  0  0  0  0
   33.7347   35.6310   55.5604 C   0  0  0  0  0  0  0  0  0  0  0  0
   35.0291   31.1306   53.5716 H   0  0  0  0  0  0  0  0  0  0  0  0
   35.8112   32.7242   53.7007 H   0  0  0  0  0  0  0  0  0  0  0  0
   34.7143   32.1644   54.9858 H   0  0  0  0  0  0  0  0  0  0  0  0
   32.8145   32.2317   53.3937 H   0  0  0  0  0  0  0  0  0  0  0  0
   33.9114   32.7915   52.1085 H   0  0  0  0  0  0  0  0  0  0  0  0
   34.4637   35.9499   52.9805 H   0  0  0  0  0  0  0  0  0  0  0  0
   33.8530   34.8881   51.6889 H   0  0  0  0  0  0  0  0  0  0  0  0
   31.5241   35.3983   52.3707 H   0  0  0  0  0  0  0  0  0  0  0  0
   32.1349   36.4601   53.6622 H   0  0  0  0  0  0  0  0  0  0  0  0
   32.4090   36.8861   51.9558 H   0  0  0  0  0  0  0  0  0  0  0  0
   32.2710   32.5895   55.3174 H   0  0  0  0  0  0  0  0  0  0  0  0
   31.8220   33.0527   57.6919 H   0  0  0  0  0  0  0  0  0  0  0  0
   32.4252   36.1419   59.3178 H   0  0  0  0  0  0  0  0  0  0  0  0
   32.9922   34.1143   61.9552 H   0  0  0  0  0  0  0  0  0  0  0  0
   31.2430   34.0036   61.6454 H   0  0  0  0  0  0  0  0  0  0  0  0
   32.3304   35.3124   64.0783 H   0  0  0  0  0  0  0  0  0  0  0  0
   30.8388   36.0570   65.8888 H   0  0  0  0  0  0  0  0  0  0  0  0
   28.9003   37.4849   65.3834 H   0  0  0  0  0  0  0  0  0  0  0  0
   28.4451   38.1748   63.0651 H   0  0  0  0  0  0  0  0  0  0  0  0
   28.9202   37.0786   59.2031 H   0  0  0  0  0  0  0  0  0  0  0  0
   29.4877   35.6701   60.1315 H   0  0  0  0  0  0  0  0  0  0  0  0
   28.0616   36.5824   60.6811 H   0  0  0  0  0  0  0  0  0  0  0  0
   33.8124   36.8198   57.3337 H   0  0  0  0  0  0  0  0  0  0  0  0
   34.2706   36.3526   54.9616 H   0  0  0  0  0  0  0  0  0  0  0  0
  1  2  1  0  0  0  0
  1 25  1  0  0  0  0
  1 26  1  0  0  0  0
  1 27  1  0  0  0  0
  2  3  1  0  0  0  0
  2 28  1  0  0  0  0
  2 29  1  0  0  0  0
  3  4  1  0  0  0  0
  3  6  1  0  0  0  0
  4  5  1  0  0  0  0
  4 30  1  0  0  0  0
  4 31  1  0  0  0  0
  5 32  1  0  0  0  0
  5 33  1  0  0  0  0
  5 34  1  0  0  0  0
  6 24  2  0  0  0  0
  6  7  1  0  0  0  0
  7  8  2  0  0  0  0
  7 35  1  0  0  0  0
  8  9  1  0  0  0  0
  8 36  1  0  0  0  0
  9 10  1  0  0  0  0
  9 23  2  0  0  0  0
 10 11  1  0  0  0  0
 10 37  1  0  0  0  0
 11 12  2  0  0  0  0
 11 13  1  0  0  0  0
 13 14  1  0  0  0  0
 13 38  1  0  0  0  0
 13 39  1  0  0  0  0
 14 15  1  0  0  0  0
 15 20  2  0  0  0  0
 15 16  1  0  0  0  0
 16 17  2  0  0  0  0
 16 40  1  0  0  0  0
 17 18  1  0  0  0  0
 17 41  1  0  0  0  0
 18 19  2  0  0  0  0
 18 42  1  0  0  0  0
 19 20  1  0  0  0  0
 19 43  1  0  0  0  0
 20 21  1  0  0  0  0
 21 22  1  0  0  0  0
 22 44  1  0  0  0  0
 22 45  1  0  0  0  0
 22 46  1  0  0  0  0
 23 24  1  0  0  0  0
 23 47  1  0  0  0  0
 24 48  1  0  0  0  0
M  END
$$$$
