ZINC000000031389      none
 OpenBabel11202420163D

 34 36  0  0  0  0  0  0  0  0999 V2000
   34.3820   39.6580   55.2915 C   0  0  0  0  0  0  0  0  0  0  0  0
   33.8559   38.4968   56.0951 C   0  0  0  0  0  0  0  0  0  0  0  0
   33.8533   37.2248   55.5500 C   0  0  0  0  0  0  0  0  0  0  0  0
   33.3722   36.1534   56.2810 C   0  0  0  0  0  0  0  0  0  0  0  0
   32.8962   36.3461   57.5616 C   0  0  0  0  0  0  0  0  0  0  0  0
   32.8914   37.6271   58.1154 C   0  0  0  0  0  0  0  0  0  0  0  0
   32.3787   37.8418   59.4851 C   0  0  0  0  0  0  0  0  0  0  0  0
   31.9194   38.9224   59.7998 O   0  0  0  0  0  0  0  0  0  0  0  0
   32.4202   36.8394   60.3851 N   0  0  0  0  0  0  0  0  0  0  0  0
   31.9352   37.0424   61.6806 C   0  0  0  0  0  0  0  0  0  0  0  0
   32.4944   36.3328   62.7501 C   0  0  0  0  0  0  0  0  0  0  0  0
   32.0432   36.5101   64.0197 C   0  0  0  0  0  0  0  0  0  0  0  0
   30.9988   37.4171   64.2746 C   0  0  0  0  0  0  0  0  0  0  0  0
   30.5409   37.6067   65.5162 N   0  0  0  0  0  0  0  0  0  0  0  0
   29.5686   38.4503   65.7634 C   0  0  0  0  0  0  0  0  0  0  0  0
   28.9633   39.1894   64.7491 C   0  0  0  0  0  0  0  0  0  0  0  0
   29.3830   39.0446   63.4576 C   0  0  0  0  0  0  0  0  0  0  0  0
   30.4281   38.1380   63.1961 C   0  0  0  0  0  0  0  0  0  0  0  0
   30.9109   37.9384   61.8936 C   0  0  0  0  0  0  0  0  0  0  0  0
   33.3783   38.7041   57.3724 C   0  0  0  0  0  0  0  0  0  0  0  0
   35.4500   39.7736   55.4762 H   0  0  0  0  0  0  0  0  0  0  0  0
   34.2148   39.4712   54.2307 H   0  0  0  0  0  0  0  0  0  0  0  0
   33.8615   40.5693   55.5863 H   0  0  0  0  0  0  0  0  0  0  0  0
   34.2284   37.0680   54.5494 H   0  0  0  0  0  0  0  0  0  0  0  0
   33.3730   35.1632   55.8497 H   0  0  0  0  0  0  0  0  0  0  0  0
   32.5248   35.5081   58.1327 H   0  0  0  0  0  0  0  0  0  0  0  0
   32.7867   35.9770   60.1339 H   0  0  0  0  0  0  0  0  0  0  0  0
   33.2965   35.6342   62.5634 H   0  0  0  0  0  0  0  0  0  0  0  0
   32.4867   35.9549   64.8330 H   0  0  0  0  0  0  0  0  0  0  0  0
   29.2271   38.5755   66.7804 H   0  0  0  0  0  0  0  0  0  0  0  0
   28.1639   39.8766   64.9842 H   0  0  0  0  0  0  0  0  0  0  0  0
   28.9289   39.6132   62.6596 H   0  0  0  0  0  0  0  0  0  0  0  0
   30.4829   38.4832   61.0651 H   0  0  0  0  0  0  0  0  0  0  0  0
   33.3809   39.6973   57.7966 H   0  0  0  0  0  0  0  0  0  0  0  0
  1  2  1  0  0  0  0
  1 21  1  0  0  0  0
  1 22  1  0  0  0  0
  1 23  1  0  0  0  0
  2 20  2  0  0  0  0
  2  3  1  0  0  0  0
  3  4  2  0  0  0  0
  3 24  1  0  0  0  0
  4  5  1  0  0  0  0
  4 25  1  0  0  0  0
  5  6  2  0  0  0  0
  5 26  1  0  0  0  0
  6  7  1  0  0  0  0
  6 20  1  0  0  0  0
  7  8  2  0  0  0  0
  7  9  1  0  0  0  0
  9 10  1  0  0  0  0
  9 27  1  0  0  0  0
 10 19  2  0  0  0  0
 10 11  1  0  0  0  0
 11 12  2  0  0  0  0
 11 28  1  0  0  0  0
 12 13  1  0  0  0  0
 12 29  1  0  0  0  0
 13 18  2  0  0  0  0
 13 14  1  0  0  0  0
 14 15  2  0  0  0  0
 15 16  1  0  0  0  0
 15 30  1  0  0  0  0
 16 17  2  0  0  0  0
 16 31  1  0  0  0  0
 17 18  1  0  0  0  0
 17 32  1  0  0  0  0
 18 19  1  0  0  0  0
 19 33  1  0  0  0  0
 20 34  1  0  0  0  0
M  END
$$$$
