ZINC000000040334      none
 OpenBabel11202420153D

 29 30  0  0  0  0  0  0  0  0999 V2000
   35.2929   32.4513   54.5796 C   0  0  0  0  0  0  0  0  0  0  0  0
   34.1217   32.3994   53.5966 C   0  0  0  0  0  0  0  0  0  0  0  0
   33.8361   33.7382   53.1127 O   0  0  0  0  0  0  0  0  0  0  0  0
   32.9505   34.4635   53.8136 C   0  0  0  0  0  0  0  0  0  0  0  0
   32.4309   33.9951   54.7987 O   0  0  0  0  0  0  0  0  0  0  0  0
   32.5992   35.8596   53.3679 C   0  0  0  0  0  0  0  0  0  0  0  0
   33.8076   36.6880   53.3597 N   0  0  0  0  0  0  0  0  0  0  0  0
   34.7071   36.8754   52.2956 N   0  0  0  0  0  0  0  0  0  0  0  0
   35.6222   37.6794   52.7169 N   0  0  0  0  0  0  0  0  0  0  0  0
   35.3987   38.0121   53.9369 N   0  0  0  0  0  0  0  0  0  0  0  0
   34.3017   37.4339   54.3787 C   0  0  0  0  0  0  0  0  0  0  0  0
   33.7176   37.5725   55.7315 C   0  0  0  0  0  0  0  0  0  0  0  0
   33.3343   38.8281   56.2031 C   0  0  0  0  0  0  0  0  0  0  0  0
   32.7859   38.9508   57.4631 C   0  0  0  0  0  0  0  0  0  0  0  0
   32.6257   37.8321   58.2631 C   0  0  0  0  0  0  0  0  0  0  0  0
   31.9406   37.9946   59.8499 Cl  0  0  0  0  0  0  0  0  0  0  0  0
   33.0093   36.5841   57.8021 C   0  0  0  0  0  0  0  0  0  0  0  0
   33.5538   36.4489   56.5417 C   0  0  0  0  0  0  0  0  0  0  0  0
   36.1730   32.8509   54.0757 H   0  0  0  0  0  0  0  0  0  0  0  0
   35.0330   33.0938   55.4209 H   0  0  0  0  0  0  0  0  0  0  0  0
   35.5073   31.4462   54.9429 H   0  0  0  0  0  0  0  0  0  0  0  0
   33.2418   31.9997   54.1006 H   0  0  0  0  0  0  0  0  0  0  0  0
   34.3818   31.7569   52.7553 H   0  0  0  0  0  0  0  0  0  0  0  0
   32.1759   35.8249   52.3641 H   0  0  0  0  0  0  0  0  0  0  0  0
   31.8697   36.2878   54.0553 H   0  0  0  0  0  0  0  0  0  0  0  0
   33.4627   39.7019   55.5816 H   0  0  0  0  0  0  0  0  0  0  0  0
   32.4850   39.9219   57.8277 H   0  0  0  0  0  0  0  0  0  0  0  0
   32.8823   35.7148   58.4304 H   0  0  0  0  0  0  0  0  0  0  0  0
   33.8524   35.4750   56.1829 H   0  0  0  0  0  0  0  0  0  0  0  0
  1  2  1  0  0  0  0
  1 19  1  0  0  0  0
  1 20  1  0  0  0  0
  1 21  1  0  0  0  0
  2  3  1  0  0  0  0
  2 22  1  0  0  0  0
  2 23  1  0  0  0  0
  3  4  1  0  0  0  0
  4  5  2  0  0  0  0
  4  6  1  0  0  0  0
  6  7  1  0  0  0  0
  6 24  1  0  0  0  0
  6 25  1  0  0  0  0
  7 11  1  0  0  0  0
  7  8  1  0  0  0  0
  8  9  2  0  0  0  0
  9 10  1  0  0  0  0
 10 11  2  0  0  0  0
 11 12  1  0  0  0  0
 12 18  2  0  0  0  0
 12 13  1  0  0  0  0
 13 14  2  0  0  0  0
 13 26  1  0  0  0  0
 14 15  1  0  0  0  0
 14 27  1  0  0  0  0
 15 16  1  0  0  0  0
 15 17  2  0  0  0  0
 17 18  1  0  0  0  0
 17 28  1  0  0  0  0
 18 29  1  0  0  0  0
M  END
$$$$
