ZINC000000041854      none
 OpenBabel11202420153D

 35 36  0  0  0  0  0  0  0  0999 V2000
   34.3167   33.4413   55.2355 C   0  0  0  0  0  0  0  0  0  0  0  0
   33.6514   34.0367   56.4780 C   0  0  0  0  0  0  0  0  0  0  0  0
   33.7187   35.4858   56.4157 O   0  0  0  0  0  0  0  0  0  0  0  0
   33.1730   36.1689   57.4431 C   0  0  0  0  0  0  0  0  0  0  0  0
   32.6551   35.5686   58.3658 O   0  0  0  0  0  0  0  0  0  0  0  0
   33.2040   37.6313   57.4475 C   0  0  0  0  0  0  0  0  0  0  0  0
   32.6368   38.4450   58.5101 C   0  0  0  0  0  0  0  0  0  0  0  0
   31.9657   37.8813   59.7058 C   0  0  0  0  0  0  0  0  0  0  0  0
   30.5919   37.6444   59.6901 C   0  0  0  0  0  0  0  0  0  0  0  0
   29.9726   37.1153   60.8037 C   0  0  0  0  0  0  0  0  0  0  0  0
   30.7118   36.8297   61.9402 C   0  0  0  0  0  0  0  0  0  0  0  0
   30.1002   36.3169   63.0302 F   0  0  0  0  0  0  0  0  0  0  0  0
   32.0765   37.0681   61.9622 C   0  0  0  0  0  0  0  0  0  0  0  0
   32.7055   37.5921   60.8516 C   0  0  0  0  0  0  0  0  0  0  0  0
   32.7902   39.7567   58.2965 C   0  0  0  0  0  0  0  0  0  0  0  0
   33.6290   40.0455   56.7829 S   0  0  0  0  0  0  0  0  0  0  0  0
   33.7669   38.3807   56.4485 C   0  0  0  0  0  0  0  0  0  0  0  0
   34.3728   37.8545   55.3188 N   0  0  0  0  0  0  0  0  0  0  0  0
   34.8986   38.6781   54.3906 C   0  0  0  0  0  0  0  0  0  0  0  0
   35.5575   38.1058   53.1620 C   0  0  0  0  0  0  0  0  0  0  0  0
   34.8416   39.8797   54.5440 O   0  0  0  0  0  0  0  0  0  0  0  0
   34.2662   32.3536   55.2822 H   0  0  0  0  0  0  0  0  0  0  0  0
   33.7980   33.7912   54.3428 H   0  0  0  0  0  0  0  0  0  0  0  0
   35.3598   33.7553   55.1960 H   0  0  0  0  0  0  0  0  0  0  0  0
   34.1702   33.6868   57.3707 H   0  0  0  0  0  0  0  0  0  0  0  0
   32.6084   33.7227   56.5174 H   0  0  0  0  0  0  0  0  0  0  0  0
   30.0141   37.8708   58.8063 H   0  0  0  0  0  0  0  0  0  0  0  0
   28.9092   36.9274   60.7910 H   0  0  0  0  0  0  0  0  0  0  0  0
   32.6488   36.8437   62.8502 H   0  0  0  0  0  0  0  0  0  0  0  0
   33.7693   37.7775   60.8698 H   0  0  0  0  0  0  0  0  0  0  0  0
   32.4444   40.5320   58.9642 H   0  0  0  0  0  0  0  0  0  0  0  0
   34.4183   36.8933   55.1960 H   0  0  0  0  0  0  0  0  0  0  0  0
   34.8337   37.5101   52.6056 H   0  0  0  0  0  0  0  0  0  0  0  0
   35.9199   38.9183   52.5322 H   0  0  0  0  0  0  0  0  0  0  0  0
   36.3953   37.4752   53.4593 H   0  0  0  0  0  0  0  0  0  0  0  0
  1  2  1  0  0  0  0
  1 22  1  0  0  0  0
  1 23  1  0  0  0  0
  1 24  1  0  0  0  0
  2  3  1  0  0  0  0
  2 25  1  0  0  0  0
  2 26  1  0  0  0  0
  3  4  1  0  0  0  0
  4  5  2  0  0  0  0
  4  6  1  0  0  0  0
  6 17  2  0  0  0  0
  6  7  1  0  0  0  0
  7  8  1  0  0  0  0
  7 15  2  0  0  0  0
  8 14  2  0  0  0  0
  8  9  1  0  0  0  0
  9 10  2  0  0  0  0
  9 27  1  0  0  0  0
 10 11  1  0  0  0  0
 10 28  1  0  0  0  0
 11 12  1  0  0  0  0
 11 13  2  0  0  0  0
 13 14  1  0  0  0  0
 13 29  1  0  0  0  0
 14 30  1  0  0  0  0
 15 16  1  0  0  0  0
 15 31  1  0  0  0  0
 16 17  1  0  0  0  0
 17 18  1  0  0  0  0
 18 19  1  0  0  0  0
 18 32  1  0  0  0  0
 19 20  1  0  0  0  0
 19 21  2  0  0  0  0
 20 33  1  0  0  0  0
 20 34  1  0  0  0  0
 20 35  1  0  0  0  0
M  END
$$$$
