ZINC000000028315      none
 OpenBabel11202420163D

 36 36  0  0  0  0  0  0  0  0999 V2000
   34.9848   38.4071   52.7077 C   0  0  0  0  0  0  0  0  0  0  0  0
   34.8659   39.2856   53.8285 O   0  0  0  0  0  0  0  0  0  0  0  0
   34.3046   38.7758   54.9544 C   0  0  0  0  0  0  0  0  0  0  0  0
   34.1590   39.5781   56.0803 C   0  0  0  0  0  0  0  0  0  0  0  0
   33.5905   39.0658   57.2246 C   0  0  0  0  0  0  0  0  0  0  0  0
   33.1586   37.7348   57.2532 C   0  0  0  0  0  0  0  0  0  0  0  0
   32.5507   37.1826   58.4723 C   0  0  0  0  0  0  0  0  0  0  0  0
   32.0390   38.0117   59.4065 C   0  0  0  0  0  0  0  0  0  0  0  0
   31.4288   37.4620   60.6167 C   0  0  0  0  0  0  0  0  0  0  0  0
   31.3825   36.2570   60.7817 O   0  0  0  0  0  0  0  0  0  0  0  0
   30.9178   38.2901   61.5495 N   0  0  0  0  0  0  0  0  0  0  0  0
   30.3063   37.7394   62.7616 C   0  0  0  0  0  0  0  0  0  0  0  0
   31.3439   36.9157   63.5271 C   0  0  0  0  0  0  0  0  0  0  0  0
   29.8097   38.8839   63.6471 C   0  0  0  0  0  0  0  0  0  0  0  0
   29.1272   36.8437   62.3764 C   0  0  0  0  0  0  0  0  0  0  0  0
   33.3126   36.9295   56.1186 C   0  0  0  0  0  0  0  0  0  0  0  0
   33.8769   37.4532   54.9773 C   0  0  0  0  0  0  0  0  0  0  0  0
   35.6020   37.5513   52.9809 H   0  0  0  0  0  0  0  0  0  0  0  0
   33.9949   38.0611   52.4106 H   0  0  0  0  0  0  0  0  0  0  0  0
   35.4485   38.9389   51.8768 H   0  0  0  0  0  0  0  0  0  0  0  0
   34.4931   40.6050   56.0574 H   0  0  0  0  0  0  0  0  0  0  0  0
   33.4776   39.6900   58.0987 H   0  0  0  0  0  0  0  0  0  0  0  0
   32.5135   36.1135   58.6208 H   0  0  0  0  0  0  0  0  0  0  0  0
   32.0761   39.0808   59.2582 H   0  0  0  0  0  0  0  0  0  0  0  0
   30.9547   39.2502   61.4181 H   0  0  0  0  0  0  0  0  0  0  0  0
   32.1839   37.5537   63.8014 H   0  0  0  0  0  0  0  0  0  0  0  0
   30.8890   36.5060   64.4290 H   0  0  0  0  0  0  0  0  0  0  0  0
   31.6978   36.1003   62.8961 H   0  0  0  0  0  0  0  0  0  0  0  0
   29.0705   39.4708   63.1018 H   0  0  0  0  0  0  0  0  0  0  0  0
   29.3548   38.4743   64.5491 H   0  0  0  0  0  0  0  0  0  0  0  0
   30.6496   39.5219   63.9216 H   0  0  0  0  0  0  0  0  0  0  0  0
   29.4811   36.0285   61.7456 H   0  0  0  0  0  0  0  0  0  0  0  0
   28.6723   36.4341   63.2785 H   0  0  0  0  0  0  0  0  0  0  0  0
   28.3881   37.4307   61.8312 H   0  0  0  0  0  0  0  0  0  0  0  0
   32.9854   35.9005   56.1372 H   0  0  0  0  0  0  0  0  0  0  0  0
   33.9922   36.8340   54.0999 H   0  0  0  0  0  0  0  0  0  0  0  0
  1  2  1  0  0  0  0
  1 18  1  0  0  0  0
  1 19  1  0  0  0  0
  1 20  1  0  0  0  0
  2  3  1  0  0  0  0
  3 17  2  0  0  0  0
  3  4  1  0  0  0  0
  4  5  2  0  0  0  0
  4 21  1  0  0  0  0
  5  6  1  0  0  0  0
  5 22  1  0  0  0  0
  6  7  1  0  0  0  0
  6 16  2  0  0  0  0
  7  8  2  0  0  0  0
  7 23  1  0  0  0  0
  8  9  1  0  0  0  0
  8 24  1  0  0  0  0
  9 10  2  0  0  0  0
  9 11  1  0  0  0  0
 11 12  1  0  0  0  0
 11 25  1  0  0  0  0
 12 13  1  0  0  0  0
 12 14  1  0  0  0  0
 12 15  1  0  0  0  0
 13 26  1  0  0  0  0
 13 27  1  0  0  0  0
 13 28  1  0  0  0  0
 14 29  1  0  0  0  0
 14 30  1  0  0  0  0
 14 31  1  0  0  0  0
 15 32  1  0  0  0  0
 15 33  1  0  0  0  0
 15 34  1  0  0  0  0
 16 17  1  0  0  0  0
 16 35  1  0  0  0  0
 17 36  1  0  0  0  0
M  END
$$$$
