ZINC000000047957      none
 OpenBabel11202420153D

 30 32  0  0  0  0  0  0  0  0999 V2000
   32.0071   35.0243   59.9455 O   0  0  0  0  0  0  0  0  0  0  0  0
   32.3572   35.9268   59.2109 C   0  0  0  0  0  0  0  0  0  0  0  0
   32.6770   35.8116   57.9106 N   0  0  0  0  0  0  0  0  0  0  0  0
   33.0407   37.0390   57.3657 C   0  0  0  0  0  0  0  0  0  0  0  0
   33.4407   37.3958   56.0834 C   0  0  0  0  0  0  0  0  0  0  0  0
   33.7526   38.7098   55.7941 C   0  0  0  0  0  0  0  0  0  0  0  0
   33.6717   39.6869   56.7724 C   0  0  0  0  0  0  0  0  0  0  0  0
   33.2774   39.3531   58.0522 C   0  0  0  0  0  0  0  0  0  0  0  0
   32.9603   38.0309   58.3543 C   0  0  0  0  0  0  0  0  0  0  0  0
   32.5148   37.3555   59.5909 C   0  0  0  0  0  0  0  0  0  0  0  0
   32.2965   37.9178   60.8094 C   0  0  0  0  0  0  0  0  0  0  0  0
   31.9880   37.0667   61.9667 C   0  0  0  0  0  0  0  0  0  0  0  0
   32.4329   35.9360   62.0259 O   0  0  0  0  0  0  0  0  0  0  0  0
   31.1381   37.5836   63.0579 C   0  0  0  0  0  0  0  0  0  0  0  0
   31.3160   37.1210   64.3649 C   0  0  0  0  0  0  0  0  0  0  0  0
   30.5226   37.6099   65.3798 C   0  0  0  0  0  0  0  0  0  0  0  0
   29.5425   38.5523   65.1050 C   0  0  0  0  0  0  0  0  0  0  0  0
   28.7643   39.0246   66.1031 F   0  0  0  0  0  0  0  0  0  0  0  0
   29.3582   39.0116   63.8089 C   0  0  0  0  0  0  0  0  0  0  0  0
   30.1485   38.5332   62.7867 C   0  0  0  0  0  0  0  0  0  0  0  0
   32.6571   34.9780   57.4149 H   0  0  0  0  0  0  0  0  0  0  0  0
   33.5075   36.6437   55.3112 H   0  0  0  0  0  0  0  0  0  0  0  0
   34.0622   38.9783   54.7949 H   0  0  0  0  0  0  0  0  0  0  0  0
   33.9182   40.7109   56.5338 H   0  0  0  0  0  0  0  0  0  0  0  0
   33.2140   40.1141   58.8160 H   0  0  0  0  0  0  0  0  0  0  0  0
   32.3498   38.9901   60.9268 H   0  0  0  0  0  0  0  0  0  0  0  0
   32.0761   36.3844   64.5795 H   0  0  0  0  0  0  0  0  0  0  0  0
   30.6611   37.2554   66.3905 H   0  0  0  0  0  0  0  0  0  0  0  0
   28.5935   39.7452   63.6008 H   0  0  0  0  0  0  0  0  0  0  0  0
   30.0037   38.8909   61.7781 H   0  0  0  0  0  0  0  0  0  0  0  0
  1  2  2  0  0  0  0
  2 10  1  0  0  0  0
  2  3  1  0  0  0  0
  3  4  1  0  0  0  0
  3 21  1  0  0  0  0
  4  9  2  0  0  0  0
  4  5  1  0  0  0  0
  5  6  2  0  0  0  0
  5 22  1  0  0  0  0
  6  7  1  0  0  0  0
  6 23  1  0  0  0  0
  7  8  2  0  0  0  0
  7 24  1  0  0  0  0
  8  9  1  0  0  0  0
  8 25  1  0  0  0  0
  9 10  1  0  0  0  0
 10 11  2  0  0  0  0
 11 12  1  0  0  0  0
 11 26  1  0  0  0  0
 12 13  2  0  0  0  0
 12 14  1  0  0  0  0
 14 20  2  0  0  0  0
 14 15  1  0  0  0  0
 15 16  2  0  0  0  0
 15 27  1  0  0  0  0
 16 17  1  0  0  0  0
 16 28  1  0  0  0  0
 17 18  1  0  0  0  0
 17 19  2  0  0  0  0
 19 20  1  0  0  0  0
 19 29  1  0  0  0  0
 20 30  1  0  0  0  0
M  END
$$$$
