ZINC000000001272      none
 OpenBabel11202420153D

 27 27  0  0  0  0  0  0  0  0999 V2000
   33.8606   36.0035   54.1419 C   0  0  0  0  0  0  0  0  0  0  0  0
   33.5337   36.0557   55.5690 N   0  0  0  0  0  0  0  0  0  0  0  0
   33.2006   37.2294   56.1415 C   0  0  0  0  0  0  0  0  0  0  0  0
   33.1712   38.2448   55.4738 O   0  0  0  0  0  0  0  0  0  0  0  0
   32.8709   37.2820   57.5812 C   0  0  0  0  0  0  0  0  0  0  0  0
   33.0735   38.4593   58.3041 C   0  0  0  0  0  0  0  0  0  0  0  0
   32.7637   38.5023   59.6470 C   0  0  0  0  0  0  0  0  0  0  0  0
   32.2528   37.3806   60.2790 C   0  0  0  0  0  0  0  0  0  0  0  0
   31.8656   37.4423   61.9702 Cl  0  0  0  0  0  0  0  0  0  0  0  0
   32.0501   36.2099   59.5674 C   0  0  0  0  0  0  0  0  0  0  0  0
   31.4009   34.7878   60.3804 S   0  0  0  0  0  0  0  0  0  0  0  0
   31.2400   33.7920   59.3797 O   0  0  0  0  0  0  0  0  0  0  0  0
   30.3340   35.2461   61.1994 O   0  0  0  0  0  0  0  0  0  0  0  0
   32.5744   34.2324   61.4084 N   0  0  0  0  0  0  0  0  0  0  0  0
   32.6997   32.7963   61.6693 C   0  0  0  0  0  0  0  0  0  0  0  0
   32.3608   36.1532   58.2249 C   0  0  0  0  0  0  0  0  0  0  0  0
   34.1027   34.9783   53.8617 H   0  0  0  0  0  0  0  0  0  0  0  0
   33.0050   36.3467   53.5603 H   0  0  0  0  0  0  0  0  0  0  0  0
   34.7176   36.6468   53.9417 H   0  0  0  0  0  0  0  0  0  0  0  0
   33.5570   35.2454   56.1018 H   0  0  0  0  0  0  0  0  0  0  0  0
   33.4725   39.3343   57.8125 H   0  0  0  0  0  0  0  0  0  0  0  0
   32.9199   39.4123   60.2072 H   0  0  0  0  0  0  0  0  0  0  0  0
   33.1788   34.8579   61.8377 H   0  0  0  0  0  0  0  0  0  0  0  0
   32.8604   32.2688   60.7290 H   0  0  0  0  0  0  0  0  0  0  0  0
   33.5455   32.6202   62.3338 H   0  0  0  0  0  0  0  0  0  0  0  0
   31.7864   32.4313   62.1392 H   0  0  0  0  0  0  0  0  0  0  0  0
   32.2065   35.2384   57.6719 H   0  0  0  0  0  0  0  0  0  0  0  0
  1  2  1  0  0  0  0
  1 17  1  0  0  0  0
  1 18  1  0  0  0  0
  1 19  1  0  0  0  0
  2  3  1  0  0  0  0
  2 20  1  0  0  0  0
  3  4  2  0  0  0  0
  3  5  1  0  0  0  0
  5 16  2  0  0  0  0
  5  6  1  0  0  0  0
  6  7  2  0  0  0  0
  6 21  1  0  0  0  0
  7  8  1  0  0  0  0
  7 22  1  0  0  0  0
  8  9  1  0  0  0  0
  8 10  2  0  0  0  0
 10 11  1  0  0  0  0
 10 16  1  0  0  0  0
 11 12  2  0  0  0  0
 11 13  2  0  0  0  0
 11 14  1  0  0  0  0
 14 15  1  0  0  0  0
 14 23  1  0  0  0  0
 15 24  1  0  0  0  0
 15 25  1  0  0  0  0
 15 26  1  0  0  0  0
 16 27  1  0  0  0  0
M  END
$$$$
