ZINC000000028397      none
 OpenBabel11202420163D

 32 32  0  0  0  0  0  0  0  0999 V2000
   30.1157   38.8504   65.6752 C   0  0  0  0  0  0  0  0  0  0  0  0
   29.7772   37.5521   64.9400 C   0  0  0  0  0  0  0  0  0  0  0  0
   31.0151   36.8996   64.5060 N   0  0  0  0  0  0  0  0  0  0  0  0
   32.0159   36.4950   65.4963 C   0  0  0  0  0  0  0  0  0  0  0  0
   33.3358   37.2140   65.2108 C   0  0  0  0  0  0  0  0  0  0  0  0
   31.2398   36.6646   63.1546 C   0  0  0  0  0  0  0  0  0  0  0  0
   30.6961   37.5226   62.2010 C   0  0  0  0  0  0  0  0  0  0  0  0
   30.9138   37.2963   60.8723 C   0  0  0  0  0  0  0  0  0  0  0  0
   31.6865   36.1976   60.4680 C   0  0  0  0  0  0  0  0  0  0  0  0
   31.9228   35.9499   59.0445 C   0  0  0  0  0  0  0  0  0  0  0  0
   32.5614   36.8992   58.2768 C   0  0  0  0  0  0  0  0  0  0  0  0
   32.9235   36.6007   56.9238 C   0  0  0  0  0  0  0  0  0  0  0  0
   33.2109   36.3638   55.8506 N   0  0  0  0  0  0  0  0  0  0  0  0
   32.8578   38.1864   58.8299 C   0  0  0  0  0  0  0  0  0  0  0  0
   33.0927   39.2076   59.2686 N   0  0  0  0  0  0  0  0  0  0  0  0
   32.2273   35.3338   61.4319 C   0  0  0  0  0  0  0  0  0  0  0  0
   32.0075   35.5717   62.7583 C   0  0  0  0  0  0  0  0  0  0  0  0
   30.6616   39.5154   65.0058 H   0  0  0  0  0  0  0  0  0  0  0  0
   29.1948   39.3359   65.9981 H   0  0  0  0  0  0  0  0  0  0  0  0
   30.7320   38.6250   66.5455 H   0  0  0  0  0  0  0  0  0  0  0  0
   29.1608   37.7775   64.0696 H   0  0  0  0  0  0  0  0  0  0  0  0
   29.2314   36.8871   65.6093 H   0  0  0  0  0  0  0  0  0  0  0  0
   31.6668   36.7591   66.4945 H   0  0  0  0  0  0  0  0  0  0  0  0
   32.1693   35.4173   65.4383 H   0  0  0  0  0  0  0  0  0  0  0  0
   33.1824   38.2916   65.2687 H   0  0  0  0  0  0  0  0  0  0  0  0
   34.0805   36.9129   65.9475 H   0  0  0  0  0  0  0  0  0  0  0  0
   33.6850   36.9500   64.2126 H   0  0  0  0  0  0  0  0  0  0  0  0
   30.1016   38.3685   62.5134 H   0  0  0  0  0  0  0  0  0  0  0  0
   30.4917   37.9618   60.1339 H   0  0  0  0  0  0  0  0  0  0  0  0
   31.5966   35.0231   58.5963 H   0  0  0  0  0  0  0  0  0  0  0  0
   32.8194   34.4842   61.1255 H   0  0  0  0  0  0  0  0  0  0  0  0
   32.4262   34.9091   63.5013 H   0  0  0  0  0  0  0  0  0  0  0  0
  1  2  1  0  0  0  0
  1 18  1  0  0  0  0
  1 19  1  0  0  0  0
  1 20  1  0  0  0  0
  2  3  1  0  0  0  0
  2 21  1  0  0  0  0
  2 22  1  0  0  0  0
  3  4  1  0  0  0  0
  3  6  1  0  0  0  0
  4  5  1  0  0  0  0
  4 23  1  0  0  0  0
  4 24  1  0  0  0  0
  5 25  1  0  0  0  0
  5 26  1  0  0  0  0
  5 27  1  0  0  0  0
  6 17  2  0  0  0  0
  6  7  1  0  0  0  0
  7  8  2  0  0  0  0
  7 28  1  0  0  0  0
  8  9  1  0  0  0  0
  8 29  1  0  0  0  0
  9 10  1  0  0  0  0
  9 16  2  0  0  0  0
 10 11  2  0  0  0  0
 10 30  1  0  0  0  0
 11 12  1  0  0  0  0
 11 14  1  0  0  0  0
 12 13  3  0  0  0  0
 14 15  3  0  0  0  0
 16 17  1  0  0  0  0
 16 31  1  0  0  0  0
 17 32  1  0  0  0  0
M  END
$$$$
