ZINC000000032156      none
 OpenBabel11202420153D

 29 31  0  0  0  0  0  0  0  0999 V2000
   29.8403   39.1516   65.3171 C   0  0  0  0  0  0  0  0  0  0  0  0
   30.8711   38.1803   65.1267 O   0  0  0  0  0  0  0  0  0  0  0  0
   31.2243   37.8982   63.8441 C   0  0  0  0  0  0  0  0  0  0  0  0
   32.2177   36.9645   63.5881 C   0  0  0  0  0  0  0  0  0  0  0  0
   32.5770   36.6775   62.2860 C   0  0  0  0  0  0  0  0  0  0  0  0
   31.9432   37.3236   61.2326 C   0  0  0  0  0  0  0  0  0  0  0  0
   32.3108   37.0375   59.9125 N   0  0  0  0  0  0  0  0  0  0  0  0
   32.7977   38.0439   59.0959 C   0  0  0  0  0  0  0  0  0  0  0  0
   32.9224   39.2873   59.5496 N   0  0  0  0  0  0  0  0  0  0  0  0
   33.3910   40.2522   58.7798 C   0  0  0  0  0  0  0  0  0  0  0  0
   33.7484   40.0480   57.5290 N   0  0  0  0  0  0  0  0  0  0  0  0
   33.6538   38.8386   56.9865 C   0  0  0  0  0  0  0  0  0  0  0  0
   33.9323   38.3056   55.7533 N   0  0  0  0  0  0  0  0  0  0  0  0
   34.2853   38.7846   54.9873 H   0  0  0  0  0  0  0  0  0  0  0  0
   33.6215   36.9792   55.8019 C   0  0  0  0  0  0  0  0  0  0  0  0
   33.1723   36.6707   56.9839 N   0  0  0  0  0  0  0  0  0  0  0  0
   33.1662   37.7762   57.7666 C   0  0  0  0  0  0  0  0  0  0  0  0
   30.9484   38.2578   61.4899 C   0  0  0  0  0  0  0  0  0  0  0  0
   30.5906   38.5440   62.7926 C   0  0  0  0  0  0  0  0  0  0  0  0
   28.9265   38.8118   64.8296 H   0  0  0  0  0  0  0  0  0  0  0  0
   29.6564   39.2819   66.3836 H   0  0  0  0  0  0  0  0  0  0  0  0
   30.1520   40.1018   64.8833 H   0  0  0  0  0  0  0  0  0  0  0  0
   32.7106   36.4622   64.4072 H   0  0  0  0  0  0  0  0  0  0  0  0
   33.3510   35.9511   62.0868 H   0  0  0  0  0  0  0  0  0  0  0  0
   32.2245   36.1341   59.5700 H   0  0  0  0  0  0  0  0  0  0  0  0
   33.4807   41.2472   59.1900 H   0  0  0  0  0  0  0  0  0  0  0  0
   33.7320   36.2864   54.9808 H   0  0  0  0  0  0  0  0  0  0  0  0
   30.4552   38.7610   60.6713 H   0  0  0  0  0  0  0  0  0  0  0  0
   29.8175   39.2710   62.9928 H   0  0  0  0  0  0  0  0  0  0  0  0
  1  2  1  0  0  0  0
  1 20  1  0  0  0  0
  1 21  1  0  0  0  0
  1 22  1  0  0  0  0
  2  3  1  0  0  0  0
  3 19  2  0  0  0  0
  3  4  1  0  0  0  0
  4  5  2  0  0  0  0
  4 23  1  0  0  0  0
  5  6  1  0  0  0  0
  5 24  1  0  0  0  0
  6  7  1  0  0  0  0
  6 18  2  0  0  0  0
  7  8  1  0  0  0  0
  7 25  1  0  0  0  0
  8 17  2  0  0  0  0
  8  9  1  0  0  0  0
  9 10  2  0  0  0  0
 10 11  1  0  0  0  0
 10 26  1  0  0  0  0
 11 12  2  0  0  0  0
 12 17  1  0  0  0  0
 12 13  1  0  0  0  0
 13 14  1  0  0  0  0
 13 15  1  0  0  0  0
 15 16  2  0  0  0  0
 15 27  1  0  0  0  0
 16 17  1  0  0  0  0
 18 19  1  0  0  0  0
 18 28  1  0  0  0  0
 19 29  1  0  0  0  0
M  END
$$$$
