ZINC000000000207      none
 OpenBabel11202420153D

 42 44  0  0  1  0  0  0  0  0999 V2000
   30.6123   37.8259   64.5188 O   0  0  0  0  0  0  0  0  0  0  0  0
   30.4804   36.6405   63.7316 C   0  0  2  0  0  0  0  0  0  0  0  0
   29.4379   36.3220   63.7266 H   0  0  0  0  0  0  0  0  0  0  0  0
   31.3494   35.5322   64.3293 C   0  0  0  0  0  0  0  0  0  0  0  0
   31.2142   34.3169   63.5224 N   0  0  0  0  0  0  0  0  0  0  0  0
   31.9805   33.9693   62.4428 C   0  0  0  0  0  0  0  0  0  0  0  0
   31.5152   32.7859   61.9995 C   0  0  0  0  0  0  0  0  0  0  0  0
   30.4926   32.4208   62.7870 N   0  0  0  0  0  0  0  0  0  0  0  0
   30.3066   33.3330   63.7015 C   0  0  0  0  0  0  0  0  0  0  0  0
   30.9264   36.9226   62.3201 C   0  0  0  0  0  0  0  0  0  0  0  0
   32.2200   37.3439   62.0752 C   0  0  0  0  0  0  0  0  0  0  0  0
   32.6304   37.5983   60.7799 C   0  0  0  0  0  0  0  0  0  0  0  0
   31.7444   37.4408   59.7306 C   0  0  0  0  0  0  0  0  0  0  0  0
   32.1905   37.7229   58.3190 C   0  0  0  0  0  0  0  0  0  0  0  0
   32.7562   36.4443   57.6978 C   0  0  0  0  0  0  0  0  0  0  0  0
   33.2022   36.7264   56.2862 C   0  0  0  0  0  0  0  0  0  0  0  0
   33.1651   35.7232   55.3359 C   0  0  0  0  0  0  0  0  0  0  0  0
   33.5697   35.9833   54.0400 C   0  0  0  0  0  0  0  0  0  0  0  0
   34.0207   37.2432   53.6964 C   0  0  0  0  0  0  0  0  0  0  0  0
   34.0633   38.2457   54.6482 C   0  0  0  0  0  0  0  0  0  0  0  0
   33.6538   37.9871   55.9430 C   0  0  0  0  0  0  0  0  0  0  0  0
   30.4494   37.0242   59.9760 C   0  0  0  0  0  0  0  0  0  0  0  0
   30.0402   36.7656   61.2709 C   0  0  0  0  0  0  0  0  0  0  0  0
   30.3426   37.7178   65.4410 H   0  0  0  0  0  0  0  0  0  0  0  0
   31.0267   35.3282   65.3503 H   0  0  0  0  0  0  0  0  0  0  0  0
   32.3919   35.8507   64.3344 H   0  0  0  0  0  0  0  0  0  0  0  0
   32.8003   34.5356   62.0262 H   0  0  0  0  0  0  0  0  0  0  0  0
   31.8977   32.2287   61.1572 H   0  0  0  0  0  0  0  0  0  0  0  0
   29.5523   33.3055   64.4739 H   0  0  0  0  0  0  0  0  0  0  0  0
   32.9111   37.4708   62.8954 H   0  0  0  0  0  0  0  0  0  0  0  0
   33.6423   37.9234   60.5881 H   0  0  0  0  0  0  0  0  0  0  0  0
   31.3395   38.0669   57.7310 H   0  0  0  0  0  0  0  0  0  0  0  0
   32.9610   38.4939   58.3286 H   0  0  0  0  0  0  0  0  0  0  0  0
   33.6071   36.1003   58.2857 H   0  0  0  0  0  0  0  0  0  0  0  0
   31.9858   35.6733   57.6881 H   0  0  0  0  0  0  0  0  0  0  0  0
   32.8165   34.7371   55.6052 H   0  0  0  0  0  0  0  0  0  0  0  0
   33.5371   35.2004   53.2966 H   0  0  0  0  0  0  0  0  0  0  0  0
   34.3415   37.4459   52.6853 H   0  0  0  0  0  0  0  0  0  0  0  0
   34.4165   39.2306   54.3802 H   0  0  0  0  0  0  0  0  0  0  0  0
   33.6871   38.7697   56.6864 H   0  0  0  0  0  0  0  0  0  0  0  0
   29.7572   36.9012   59.1562 H   0  0  0  0  0  0  0  0  0  0  0  0
   29.0283   36.4404   61.4626 H   0  0  0  0  0  0  0  0  0  0  0  0
  1  2  1  0  0  0  0
  1 24  1  0  0  0  0
  2  3  1  6  0  0  0
  2  4  1  0  0  0  0
  2 10  1  0  0  0  0
  4  5  1  0  0  0  0
  4 25  1  0  0  0  0
  4 26  1  0  0  0  0
  5  9  1  0  0  0  0
  5  6  1  0  0  0  0
  6  7  2  0  0  0  0
  6 27  1  0  0  0  0
  7  8  1  0  0  0  0
  7 28  1  0  0  0  0
  8  9  2  0  0  0  0
  9 29  1  0  0  0  0
 10 23  2  0  0  0  0
 10 11  1  0  0  0  0
 11 12  2  0  0  0  0
 11 30  1  0  0  0  0
 12 13  1  0  0  0  0
 12 31  1  0  0  0  0
 13 14  1  0  0  0  0
 13 22  2  0  0  0  0
 14 15  1  0  0  0  0
 14 32  1  0  0  0  0
 14 33  1  0  0  0  0
 15 16  1  0  0  0  0
 15 34  1  0  0  0  0
 15 35  1  0  0  0  0
 16 21  2  0  0  0  0
 16 17  1  0  0  0  0
 17 18  2  0  0  0  0
 17 36  1  0  0  0  0
 18 19  1  0  0  0  0
 18 37  1  0  0  0  0
 19 20  2  0  0  0  0
 19 38  1  0  0  0  0
 20 21  1  0  0  0  0
 20 39  1  0  0  0  0
 21 40  1  0  0  0  0
 22 23  1  0  0  0  0
 22 41  1  0  0  0  0
 23 42  1  0  0  0  0
M  END
$$$$
