ZINC000000039020      none
 OpenBabel11202420153D

 26 28  0  0  0  0  0  0  0  0999 V2000
   33.4481   36.6244   63.7526 O   0  0  0  0  0  0  0  0  0  0  0  0
   33.2529   37.2702   64.8837 N   0  0  0  0  0  0  0  0  0  0  0  0
   34.1702   37.2363   65.8282 O   0  0  0  0  0  0  0  0  0  0  0  0
   32.0050   38.0393   65.0912 C   0  0  0  0  0  0  0  0  0  0  0  0
   31.7946   38.7109   66.2740 C   0  0  0  0  0  0  0  0  0  0  0  0
   30.6273   39.4356   66.4645 C   0  0  0  0  0  0  0  0  0  0  0  0
   29.6579   39.4818   65.4733 C   0  0  0  0  0  0  0  0  0  0  0  0
   29.8437   38.8181   64.2944 C   0  0  0  0  0  0  0  0  0  0  0  0
   31.0248   38.0829   64.0825 C   0  0  0  0  0  0  0  0  0  0  0  0
   31.2321   37.3699   62.8231 C   0  0  0  0  0  0  0  0  0  0  0  0
   30.8758   36.0962   62.5629 N   0  0  0  0  0  0  0  0  0  0  0  0
   31.2097   35.8048   61.3541 N   0  0  0  0  0  0  0  0  0  0  0  0
   31.8035   36.8796   60.7933 C   0  0  0  0  0  0  0  0  0  0  0  0
   32.3091   36.9584   59.5003 C   0  0  0  0  0  0  0  0  0  0  0  0
   32.9529   38.1213   58.9092 C   0  0  0  0  0  0  0  0  0  0  0  0
   33.3391   37.9006   57.6451 C   0  0  0  0  0  0  0  0  0  0  0  0
   33.0632   36.6463   57.1497 C   0  0  0  0  0  0  0  0  0  0  0  0
   32.2846   35.6667   58.3074 S   0  0  0  0  0  0  0  0  0  0  0  0
   31.8176   37.8650   61.7184 O   0  0  0  0  0  0  0  0  0  0  0  0
   32.5416   38.6772   67.0533 H   0  0  0  0  0  0  0  0  0  0  0  0
   30.4701   39.9641   67.3932 H   0  0  0  0  0  0  0  0  0  0  0  0
   28.7513   40.0461   65.6348 H   0  0  0  0  0  0  0  0  0  0  0  0
   29.0859   38.8578   63.5259 H   0  0  0  0  0  0  0  0  0  0  0  0
   33.1031   39.0555   59.4299 H   0  0  0  0  0  0  0  0  0  0  0  0
   33.8339   38.6570   57.0539 H   0  0  0  0  0  0  0  0  0  0  0  0
   33.3133   36.3209   56.1507 H   0  0  0  0  0  0  0  0  0  0  0  0
  1  2  2  0  0  0  0
  2  3  2  0  0  0  0
  2  4  1  0  0  0  0
  4  9  2  0  0  0  0
  4  5  1  0  0  0  0
  5  6  2  0  0  0  0
  5 20  1  0  0  0  0
  6  7  1  0  0  0  0
  6 21  1  0  0  0  0
  7  8  2  0  0  0  0
  7 22  1  0  0  0  0
  8  9  1  0  0  0  0
  8 23  1  0  0  0  0
  9 10  1  0  0  0  0
 10 19  1  0  0  0  0
 10 11  2  0  0  0  0
 11 12  1  0  0  0  0
 12 13  2  0  0  0  0
 13 14  1  0  0  0  0
 13 19  1  0  0  0  0
 14 18  1  0  0  0  0
 14 15  2  0  0  0  0
 15 16  1  0  0  0  0
 15 24  1  0  0  0  0
 16 17  2  0  0  0  0
 16 25  1  0  0  0  0
 17 18  1  0  0  0  0
 17 26  1  0  0  0  0
M  END
$$$$
