ZINC000000030907      none
 OpenBabel11202420163D

 35 35  0  0  1  0  0  0  0  0999 V2000
   29.2393   38.0762   64.9440 C   0  0  0  0  0  0  0  0  0  0  0  0
   30.5830   38.6757   64.5245 C   0  0  0  0  0  0  0  0  0  0  0  0
   30.9964   39.7535   65.5288 C   0  0  0  0  0  0  0  0  0  0  0  0
   31.6449   37.5746   64.4921 C   0  0  0  0  0  0  0  0  0  0  0  0
   31.2492   36.5428   63.5304 N   0  0  0  0  0  0  0  0  0  0  0  0
   32.1908   35.8338   62.8770 C   0  0  0  0  0  0  0  0  0  0  0  0
   33.3659   36.0536   63.0814 O   0  0  0  0  0  0  0  0  0  0  0  0
   31.7836   34.7681   61.8923 C   0  0  1  0  0  0  0  0  0  0  0  0
   32.6750   34.3066   61.4671 H   0  0  0  0  0  0  0  0  0  0  0  0
   30.9503   33.7035   62.6086 C   0  0  0  0  0  0  0  0  0  0  0  0
   31.0074   35.3569   60.8470 O   0  0  0  0  0  0  0  0  0  0  0  0
   31.6043   36.3285   60.1076 C   0  0  0  0  0  0  0  0  0  0  0  0
   32.3121   35.9939   58.9623 C   0  0  0  0  0  0  0  0  0  0  0  0
   32.9135   36.9840   58.2095 C   0  0  0  0  0  0  0  0  0  0  0  0
   32.8192   38.3063   58.6023 C   0  0  0  0  0  0  0  0  0  0  0  0
   32.1190   38.6417   59.7464 C   0  0  0  0  0  0  0  0  0  0  0  0
   31.5115   37.6560   60.4998 C   0  0  0  0  0  0  0  0  0  0  0  0
   29.3330   37.6324   65.9351 H   0  0  0  0  0  0  0  0  0  0  0  0
   28.4829   38.8606   64.9671 H   0  0  0  0  0  0  0  0  0  0  0  0
   28.9449   37.3084   64.2285 H   0  0  0  0  0  0  0  0  0  0  0  0
   30.4893   39.1195   63.5333 H   0  0  0  0  0  0  0  0  0  0  0  0
   31.9537   40.1805   65.2299 H   0  0  0  0  0  0  0  0  0  0  0  0
   30.2399   40.5378   65.5519 H   0  0  0  0  0  0  0  0  0  0  0  0
   31.0901   39.3097   66.5200 H   0  0  0  0  0  0  0  0  0  0  0  0
   31.7385   37.1308   65.4831 H   0  0  0  0  0  0  0  0  0  0  0  0
   32.6021   38.0018   64.1933 H   0  0  0  0  0  0  0  0  0  0  0  0
   30.3092   36.3670   63.3670 H   0  0  0  0  0  0  0  0  0  0  0  0
   30.0591   34.1649   63.0337 H   0  0  0  0  0  0  0  0  0  0  0  0
   30.6559   32.9327   61.8963 H   0  0  0  0  0  0  0  0  0  0  0  0
   31.5424   33.2543   63.4058 H   0  0  0  0  0  0  0  0  0  0  0  0
   32.3896   34.9607   58.6572 H   0  0  0  0  0  0  0  0  0  0  0  0
   33.4615   36.7243   57.3158 H   0  0  0  0  0  0  0  0  0  0  0  0
   33.2934   39.0784   58.0146 H   0  0  0  0  0  0  0  0  0  0  0  0
   32.0474   39.6752   60.0516 H   0  0  0  0  0  0  0  0  0  0  0  0
   30.9651   37.9185   61.3936 H   0  0  0  0  0  0  0  0  0  0  0  0
  1  2  1  0  0  0  0
  1 18  1  0  0  0  0
  1 19  1  0  0  0  0
  1 20  1  0  0  0  0
  2  3  1  0  0  0  0
  2  4  1  0  0  0  0
  2 21  1  0  0  0  0
  3 22  1  0  0  0  0
  3 23  1  0  0  0  0
  3 24  1  0  0  0  0
  4  5  1  0  0  0  0
  4 25  1  0  0  0  0
  4 26  1  0  0  0  0
  5  6  1  0  0  0  0
  5 27  1  0  0  0  0
  6  7  2  0  0  0  0
  6  8  1  0  0  0  0
  8  9  1  6  0  0  0
  8 10  1  0  0  0  0
  8 11  1  0  0  0  0
 10 28  1  0  0  0  0
 10 29  1  0  0  0  0
 10 30  1  0  0  0  0
 11 12  1  0  0  0  0
 12 17  2  0  0  0  0
 12 13  1  0  0  0  0
 13 14  2  0  0  0  0
 13 31  1  0  0  0  0
 14 15  1  0  0  0  0
 14 32  1  0  0  0  0
 15 16  2  0  0  0  0
 15 33  1  0  0  0  0
 16 17  1  0  0  0  0
 16 34  1  0  0  0  0
 17 35  1  0  0  0  0
M  END
$$$$
