ZINC000000046846      none
 OpenBabel11202420153D

 38 40  0  0  1  0  0  0  0  0999 V2000
   31.5958   33.1366   62.4552 C   0  0  0  0  0  0  0  0  0  0  0  0
   32.7547   34.1353   62.4369 C   0  0  0  0  0  0  0  0  0  0  0  0
   32.2425   35.4560   62.2500 O   0  0  0  0  0  0  0  0  0  0  0  0
   31.9280   36.1541   63.3611 C   0  0  0  0  0  0  0  0  0  0  0  0
   32.5351   35.9554   64.3967 O   0  0  0  0  0  0  0  0  0  0  0  0
   30.8926   37.1171   63.3220 C   0  0  0  0  0  0  0  0  0  0  0  0
   30.6125   37.7937   62.1880 C   0  0  0  0  0  0  0  0  0  0  0  0
   31.4151   37.5182   60.9427 C   0  0  0  0  0  0  0  0  0  0  0  0
   29.6137   38.7242   62.1512 N   0  0  0  0  0  0  0  0  0  0  0  0
   28.8493   39.0351   63.2057 C   0  0  0  0  0  0  0  0  0  0  0  0
   27.9833   39.8782   63.0760 O   0  0  0  0  0  0  0  0  0  0  0  0
   29.0085   38.4435   64.4062 N   0  0  0  0  0  0  0  0  0  0  0  0
   30.0610   37.4238   64.5510 C   0  0  2  0  0  0  0  0  0  0  0  0
   29.5885   36.4971   64.8767 H   0  0  0  0  0  0  0  0  0  0  0  0
   30.9959   37.8730   65.6442 C   0  0  0  0  0  0  0  0  0  0  0  0
   31.7866   38.9923   65.4594 C   0  0  0  0  0  0  0  0  0  0  0  0
   32.6462   39.4073   66.4627 C   0  0  0  0  0  0  0  0  0  0  0  0
   32.7123   38.6949   67.6580 C   0  0  0  0  0  0  0  0  0  0  0  0
   31.9181   37.5743   67.8370 C   0  0  0  0  0  0  0  0  0  0  0  0
   31.0616   37.1647   66.8304 C   0  0  0  0  0  0  0  0  0  0  0  0
   30.0672   35.7600   67.0570 Cl  0  0  0  0  0  0  0  0  0  0  0  0
   33.6232   39.2986   68.4759 O   0  0  0  0  0  0  0  0  0  0  0  0
   34.4100   40.1447   67.6169 C   0  0  0  0  0  0  0  0  0  0  0  0
   33.5159   40.4574   66.5324 O   0  0  0  0  0  0  0  0  0  0  0  0
   31.1126   33.1230   61.4782 H   0  0  0  0  0  0  0  0  0  0  0  0
   31.9769   32.1418   62.6859 H   0  0  0  0  0  0  0  0  0  0  0  0
   30.8722   33.4335   63.2144 H   0  0  0  0  0  0  0  0  0  0  0  0
   33.4332   33.8896   61.6201 H   0  0  0  0  0  0  0  0  0  0  0  0
   33.2927   34.0849   63.3836 H   0  0  0  0  0  0  0  0  0  0  0  0
   31.0546   38.1500   60.1308 H   0  0  0  0  0  0  0  0  0  0  0  0
   32.4663   37.7353   61.1325 H   0  0  0  0  0  0  0  0  0  0  0  0
   31.3051   36.4703   60.6638 H   0  0  0  0  0  0  0  0  0  0  0  0
   29.4489   39.1860   61.3144 H   0  0  0  0  0  0  0  0  0  0  0  0
   28.4435   38.6840   65.1571 H   0  0  0  0  0  0  0  0  0  0  0  0
   31.7304   39.5458   64.5337 H   0  0  0  0  0  0  0  0  0  0  0  0
   31.9671   37.0203   68.7629 H   0  0  0  0  0  0  0  0  0  0  0  0
   35.2852   39.6091   67.2493 H   0  0  0  0  0  0  0  0  0  0  0  0
   34.7078   41.0526   68.1417 H   0  0  0  0  0  0  0  0  0  0  0  0
  1  2  1  0  0  0  0
  1 25  1  0  0  0  0
  1 26  1  0  0  0  0
  1 27  1  0  0  0  0
  2  3  1  0  0  0  0
  2 28  1  0  0  0  0
  2 29  1  0  0  0  0
  3  4  1  0  0  0  0
  4  5  2  0  0  0  0
  4  6  1  0  0  0  0
  6 13  1  0  0  0  0
  6  7  2  0  0  0  0
  7  8  1  0  0  0  0
  7  9  1  0  0  0  0
  8 30  1  0  0  0  0
  8 31  1  0  0  0  0
  8 32  1  0  0  0  0
  9 10  1  0  0  0  0
  9 33  1  0  0  0  0
 10 11  2  0  0  0  0
 10 12  1  0  0  0  0
 12 13  1  0  0  0  0
 12 34  1  0  0  0  0
 13 14  1  1  0  0  0
 13 15  1  0  0  0  0
 15 20  2  0  0  0  0
 15 16  1  0  0  0  0
 16 17  2  0  0  0  0
 16 35  1  0  0  0  0
 17 24  1  0  0  0  0
 17 18  1  0  0  0  0
 18 19  2  0  0  0  0
 18 22  1  0  0  0  0
 19 20  1  0  0  0  0
 19 36  1  0  0  0  0
 20 21  1  0  0  0  0
 22 23  1  0  0  0  0
 23 24  1  0  0  0  0
 23 37  1  0  0  0  0
 23 38  1  0  0  0  0
M  END
$$$$
