ZINC000000024485      none
 OpenBabel11202420153D

 41 43  0  0  1  0  0  0  0  0999 V2000
   32.8257   37.0892   65.7935 C   0  0  0  0  0  0  0  0  0  0  0  0
   31.3412   37.3751   66.0295 C   0  0  2  0  0  0  0  0  0  0  0  0
   30.8526   36.4746   66.4018 H   0  0  0  0  0  0  0  0  0  0  0  0
   30.6985   37.7959   64.7331 C   0  0  0  0  0  0  0  0  0  0  0  0
   29.6360   38.6530   64.7462 C   0  0  0  0  0  0  0  0  0  0  0  0
   29.0531   39.0319   63.5242 C   0  0  0  0  0  0  0  0  0  0  0  0
   28.1023   39.7961   63.4996 O   0  0  0  0  0  0  0  0  0  0  0  0
   29.5686   38.5380   62.3783 N   0  0  0  0  0  0  0  0  0  0  0  0
   29.1845   38.7892   61.5237 H   0  0  0  0  0  0  0  0  0  0  0  0
   30.6270   37.6823   62.4268 C   0  0  0  0  0  0  0  0  0  0  0  0
   31.2893   37.0378   60.9267 S   0  0  0  0  0  0  0  0  0  0  0  0
   31.0422   35.2671   61.2091 C   0  0  0  0  0  0  0  0  0  0  0  0
   31.2373   34.4693   59.8959 C   0  0  0  0  0  0  0  0  0  0  0  0
   31.6056   33.0477   60.3682 C   0  0  0  0  0  0  0  0  0  0  0  0
   32.1887   33.1923   61.7848 C   0  0  0  0  0  0  0  0  0  0  0  0
   32.1543   34.6968   62.1241 C   0  0  0  0  0  0  0  0  0  0  0  0
   31.1680   37.3318   63.5779 N   0  0  0  0  0  0  0  0  0  0  0  0
   31.1976   38.4804   67.0436 C   0  0  0  0  0  0  0  0  0  0  0  0
   31.7420   39.7277   66.7903 C   0  0  0  0  0  0  0  0  0  0  0  0
   32.4027   39.9546   65.6340 F   0  0  0  0  0  0  0  0  0  0  0  0
   31.6039   40.7445   67.7202 C   0  0  0  0  0  0  0  0  0  0  0  0
   30.9337   40.5108   68.9061 C   0  0  0  0  0  0  0  0  0  0  0  0
   30.3948   39.2643   69.1626 C   0  0  0  0  0  0  0  0  0  0  0  0
   30.5262   38.2477   68.2314 C   0  0  0  0  0  0  0  0  0  0  0  0
   29.9990   37.0295   68.4822 F   0  0  0  0  0  0  0  0  0  0  0  0
   32.9296   36.2895   65.0600 H   0  0  0  0  0  0  0  0  0  0  0  0
   33.3144   37.9894   65.4212 H   0  0  0  0  0  0  0  0  0  0  0  0
   33.2906   36.7846   66.7312 H   0  0  0  0  0  0  0  0  0  0  0  0
   29.2493   39.0335   65.6800 H   0  0  0  0  0  0  0  0  0  0  0  0
   30.0568   35.0765   61.6341 H   0  0  0  0  0  0  0  0  0  0  0  0
   32.0480   34.8975   59.3063 H   0  0  0  0  0  0  0  0  0  0  0  0
   30.3126   34.4521   59.3190 H   0  0  0  0  0  0  0  0  0  0  0  0
   30.7148   32.4201   60.3932 H   0  0  0  0  0  0  0  0  0  0  0  0
   32.3493   32.6133   59.7000 H   0  0  0  0  0  0  0  0  0  0  0  0
   31.5807   32.6349   62.4974 H   0  0  0  0  0  0  0  0  0  0  0  0
   33.2159   32.8285   61.8047 H   0  0  0  0  0  0  0  0  0  0  0  0
   31.8988   34.8456   63.1732 H   0  0  0  0  0  0  0  0  0  0  0  0
   33.1137   35.1613   61.8963 H   0  0  0  0  0  0  0  0  0  0  0  0
   32.0240   41.7191   67.5206 H   0  0  0  0  0  0  0  0  0  0  0  0
   30.8307   41.3031   69.6328 H   0  0  0  0  0  0  0  0  0  0  0  0
   29.8713   39.0829   70.0896 H   0  0  0  0  0  0  0  0  0  0  0  0
  1  2  1  0  0  0  0
  1 26  1  0  0  0  0
  1 27  1  0  0  0  0
  1 28  1  0  0  0  0
  2  3  1  1  0  0  0
  2  4  1  0  0  0  0
  2 18  1  0  0  0  0
  4 17  1  0  0  0  0
  4  5  2  0  0  0  0
  5  6  1  0  0  0  0
  5 29  1  0  0  0  0
  6  7  2  0  0  0  0
  6  8  1  0  0  0  0
  8  9  1  0  0  0  0
  8 10  1  0  0  0  0
 10 11  1  0  0  0  0
 10 17  2  0  0  0  0
 11 12  1  0  0  0  0
 12 16  1  0  0  0  0
 12 13  1  0  0  0  0
 12 30  1  0  0  0  0
 13 14  1  0  0  0  0
 13 31  1  0  0  0  0
 13 32  1  0  0  0  0
 14 15  1  0  0  0  0
 14 33  1  0  0  0  0
 14 34  1  0  0  0  0
 15 16  1  0  0  0  0
 15 35  1  0  0  0  0
 15 36  1  0  0  0  0
 16 37  1  0  0  0  0
 16 38  1  0  0  0  0
 18 24  2  0  0  0  0
 18 19  1  0  0  0  0
 19 20  1  0  0  0  0
 19 21  2  0  0  0  0
 21 22  1  0  0  0  0
 21 39  1  0  0  0  0
 22 23  2  0  0  0  0
 22 40  1  0  0  0  0
 23 24  1  0  0  0  0
 23 41  1  0  0  0  0
 24 25  1  0  0  0  0
M  END
$$$$
