ZINC000000022311      none
 OpenBabel11202420153D

 46 49  0  0  1  0  0  0  0  0999 V2000
   30.7057   39.8259   67.8786 O   0  0  0  0  0  0  0  0  0  0  0  0
   30.2374   39.1425   67.0001 C   0  0  0  0  0  0  0  0  0  0  0  0
   29.7110   39.7686   65.7276 C   0  0  0  0  0  0  0  0  0  0  0  0
   30.3526   39.0460   64.5327 C   0  0  0  0  0  0  0  0  0  0  0  0
   30.0913   37.5435   64.6502 C   0  0  0  0  0  0  0  0  0  0  0  0
   30.6238   36.8611   63.4633 N   0  0  1  0  0  0  0  0  0  0  0  0
   29.6580   36.8975   62.3577 C   0  0  0  0  0  0  0  0  0  0  0  0
   30.1828   36.0560   61.1922 C   0  0  0  0  0  0  0  0  0  0  0  0
   31.5330   36.6141   60.7336 C   0  0  2  0  0  0  0  0  0  0  0  0
   32.0681   35.7778   59.6564 N   0  0  0  0  0  0  0  0  0  0  0  0
   32.3562   34.4657   59.7467 C   0  0  0  0  0  0  0  0  0  0  0  0
   32.2122   33.7836   60.7441 O   0  0  0  0  0  0  0  0  0  0  0  0
   32.8285   34.0230   58.5661 N   0  0  0  0  0  0  0  0  0  0  0  0
   33.1077   33.1148   58.3709 H   0  0  0  0  0  0  0  0  0  0  0  0
   32.8477   35.0913   57.6726 C   0  0  0  0  0  0  0  0  0  0  0  0
   33.2292   35.2152   56.3454 C   0  0  0  0  0  0  0  0  0  0  0  0
   33.1138   36.4350   55.7080 C   0  0  0  0  0  0  0  0  0  0  0  0
   32.6334   37.5380   56.3929 C   0  0  0  0  0  0  0  0  0  0  0  0
   32.2564   37.4258   57.7168 C   0  0  0  0  0  0  0  0  0  0  0  0
   32.3597   36.2030   58.3625 C   0  0  0  0  0  0  0  0  0  0  0  0
   32.5061   36.6102   61.9158 C   0  0  0  0  0  0  0  0  0  0  0  0
   31.9138   37.4356   63.0604 C   0  0  0  0  0  0  0  0  0  0  0  0
   30.7764   36.9942   65.9026 C   0  0  0  0  0  0  0  0  0  0  0  0
   30.1560   37.6391   67.1465 C   0  0  0  0  0  0  0  0  0  0  0  0
   28.6273   39.6587   65.6865 H   0  0  0  0  0  0  0  0  0  0  0  0
   29.9758   40.8256   65.7028 H   0  0  0  0  0  0  0  0  0  0  0  0
   31.4271   39.2288   64.5283 H   0  0  0  0  0  0  0  0  0  0  0  0
   29.9164   39.4195   63.6063 H   0  0  0  0  0  0  0  0  0  0  0  0
   29.0177   37.3676   64.7179 H   0  0  0  0  0  0  0  0  0  0  0  0
   28.7035   36.4940   62.6959 H   0  0  0  0  0  0  0  0  0  0  0  0
   29.5207   37.9277   62.0291 H   0  0  0  0  0  0  0  0  0  0  0  0
   29.4731   36.0959   60.3659 H   0  0  0  0  0  0  0  0  0  0  0  0
   30.3072   35.0226   61.5155 H   0  0  0  0  0  0  0  0  0  0  0  0
   31.4029   37.6342   60.3723 H   0  0  0  0  0  0  0  0  0  0  0  0
   33.6027   34.3566   55.8072 H   0  0  0  0  0  0  0  0  0  0  0  0
   33.4067   36.5306   54.6728 H   0  0  0  0  0  0  0  0  0  0  0  0
   32.5527   38.4902   55.8898 H   0  0  0  0  0  0  0  0  0  0  0  0
   31.8824   38.2885   58.2481 H   0  0  0  0  0  0  0  0  0  0  0  0
   33.4561   37.0460   61.6067 H   0  0  0  0  0  0  0  0  0  0  0  0
   32.6677   35.5859   62.2515 H   0  0  0  0  0  0  0  0  0  0  0  0
   31.7660   38.4632   62.7286 H   0  0  0  0  0  0  0  0  0  0  0  0
   32.5979   37.4230   63.9090 H   0  0  0  0  0  0  0  0  0  0  0  0
   31.8409   37.2256   65.8658 H   0  0  0  0  0  0  0  0  0  0  0  0
   30.6407   35.9137   65.9473 H   0  0  0  0  0  0  0  0  0  0  0  0
   30.7071   37.3274   68.0339 H   0  0  0  0  0  0  0  0  0  0  0  0
   29.1131   37.3360   67.2379 H   0  0  0  0  0  0  0  0  0  0  0  0
  1  2  2  0  0  0  0
  2 24  1  0  0  0  0
  2  3  1  0  0  0  0
  3  4  1  0  0  0  0
  3 25  1  0  0  0  0
  3 26  1  0  0  0  0
  4  5  1  0  0  0  0
  4 27  1  0  0  0  0
  4 28  1  0  0  0  0
  5 23  1  0  0  0  0
  5 29  1  0  0  0  0
  6  5  1  1  0  0  0
  6 22  1  0  0  0  0
  6  7  1  0  0  0  0
  7  8  1  0  0  0  0
  7 30  1  0  0  0  0
  7 31  1  0  0  0  0
  8  9  1  0  0  0  0
  8 32  1  0  0  0  0
  8 33  1  0  0  0  0
  9 10  1  0  0  0  0
  9 21  1  0  0  0  0
  9 34  1  6  0  0  0
 10 20  1  0  0  0  0
 10 11  1  0  0  0  0
 11 12  2  0  0  0  0
 11 13  1  0  0  0  0
 13 14  1  0  0  0  0
 13 15  1  0  0  0  0
 15 20  2  0  0  0  0
 15 16  1  0  0  0  0
 16 17  2  0  0  0  0
 16 35  1  0  0  0  0
 17 18  1  0  0  0  0
 17 36  1  0  0  0  0
 18 19  2  0  0  0  0
 18 37  1  0  0  0  0
 19 20  1  0  0  0  0
 19 38  1  0  0  0  0
 21 22  1  0  0  0  0
 21 39  1  0  0  0  0
 21 40  1  0  0  0  0
 22 41  1  0  0  0  0
 22 42  1  0  0  0  0
 23 24  1  0  0  0  0
 23 43  1  0  0  0  0
 23 44  1  0  0  0  0
 24 45  1  0  0  0  0
 24 46  1  0  0  0  0
M  END
$$$$
