ZINC000000031399      none
 OpenBabel11202420163D

 49 51  0  0  1  0  0  0  0  0999 V2000
   33.3385   41.8842   67.1804 C   0  0  0  0  0  0  0  0  0  0  0  0
   33.2646   40.3640   67.0243 C   0  0  0  0  0  0  0  0  0  0  0  0
   31.8393   39.9091   67.2052 C   0  0  0  0  0  0  0  0  0  0  0  0
   30.9683   40.7209   67.4362 O   0  0  0  0  0  0  0  0  0  0  0  0
   31.5326   38.6002   67.1104 N   0  0  0  0  0  0  0  0  0  0  0  0
   30.2109   38.1641   67.2767 C   0  0  0  0  0  0  0  0  0  0  0  0
   29.2703   39.0405   67.8062 C   0  0  0  0  0  0  0  0  0  0  0  0
   27.9636   38.6303   67.9780 C   0  0  0  0  0  0  0  0  0  0  0  0
   27.5889   37.3502   67.6125 C   0  0  0  0  0  0  0  0  0  0  0  0
   28.5210   36.4789   67.0834 C   0  0  0  0  0  0  0  0  0  0  0  0
   29.8356   36.8806   66.9135 C   0  0  0  0  0  0  0  0  0  0  0  0
   30.8272   35.9040   66.3380 C   0  0  1  0  0  0  0  0  0  0  0  0
   31.1592   35.2242   67.1226 H   0  0  0  0  0  0  0  0  0  0  0  0
   30.1834   35.1334   65.2712 N   0  0  0  0  0  0  0  0  0  0  0  0
   29.5520   33.9785   65.5611 C   0  0  0  0  0  0  0  0  0  0  0  0
   28.8899   33.1857   64.4637 C   0  0  0  0  0  0  0  0  0  0  0  0
   29.5168   33.5772   66.7050 O   0  0  0  0  0  0  0  0  0  0  0  0
   30.2241   35.5964   63.9514 C   0  0  0  0  0  0  0  0  0  0  0  0
   30.8203   34.8259   62.9617 C   0  0  0  0  0  0  0  0  0  0  0  0
   30.8540   35.2834   61.6589 C   0  0  0  0  0  0  0  0  0  0  0  0
   30.3049   36.5121   61.3417 C   0  0  0  0  0  0  0  0  0  0  0  0
   29.7152   37.2842   62.3258 C   0  0  0  0  0  0  0  0  0  0  0  0
   29.6735   36.8300   63.6295 C   0  0  0  0  0  0  0  0  0  0  0  0
   32.0364   36.6433   65.7659 C   0  0  0  0  0  0  0  0  0  0  0  0
   32.5781   37.6065   66.8306 C   0  0  2  0  0  0  0  0  0  0  0  0
   33.4721   38.1052   66.4564 H   0  0  0  0  0  0  0  0  0  0  0  0
   32.9124   36.8325   68.1072 C   0  0  0  0  0  0  0  0  0  0  0  0
   34.3693   42.2135   67.0495 H   0  0  0  0  0  0  0  0  0  0  0  0
   32.7076   42.3578   66.4281 H   0  0  0  0  0  0  0  0  0  0  0  0
   32.9910   42.1648   68.1747 H   0  0  0  0  0  0  0  0  0  0  0  0
   33.8955   39.8905   67.7767 H   0  0  0  0  0  0  0  0  0  0  0  0
   33.6121   40.0836   66.0300 H   0  0  0  0  0  0  0  0  0  0  0  0
   29.5633   40.0413   68.0874 H   0  0  0  0  0  0  0  0  0  0  0  0
   27.2337   39.3097   68.3931 H   0  0  0  0  0  0  0  0  0  0  0  0
   26.5654   37.0309   67.7414 H   0  0  0  0  0  0  0  0  0  0  0  0
   28.2233   35.4800   66.8006 H   0  0  0  0  0  0  0  0  0  0  0  0
   29.6283   32.5440   63.9828 H   0  0  0  0  0  0  0  0  0  0  0  0
   28.0958   32.5714   64.8878 H   0  0  0  0  0  0  0  0  0  0  0  0
   28.4669   33.8684   63.7267 H   0  0  0  0  0  0  0  0  0  0  0  0
   31.2536   33.8683   63.2098 H   0  0  0  0  0  0  0  0  0  0  0  0
   31.3139   34.6828   60.8881 H   0  0  0  0  0  0  0  0  0  0  0  0
   30.3362   36.8695   60.3229 H   0  0  0  0  0  0  0  0  0  0  0  0
   29.2871   38.2434   62.0747 H   0  0  0  0  0  0  0  0  0  0  0  0
   29.2128   37.4334   64.3976 H   0  0  0  0  0  0  0  0  0  0  0  0
   32.8101   35.9244   65.4965 H   0  0  0  0  0  0  0  0  0  0  0  0
   31.7361   37.2052   64.8816 H   0  0  0  0  0  0  0  0  0  0  0  0
   33.6670   36.0772   67.8872 H   0  0  0  0  0  0  0  0  0  0  0  0
   33.2966   37.5214   68.8595 H   0  0  0  0  0  0  0  0  0  0  0  0
   32.0121   36.3476   68.4846 H   0  0  0  0  0  0  0  0  0  0  0  0
  1  2  1  0  0  0  0
  1 28  1  0  0  0  0
  1 29  1  0  0  0  0
  1 30  1  0  0  0  0
  2  3  1  0  0  0  0
  2 31  1  0  0  0  0
  2 32  1  0  0  0  0
  3  4  2  0  0  0  0
  3  5  1  0  0  0  0
  5 25  1  0  0  0  0
  5  6  1  0  0  0  0
  6 11  2  0  0  0  0
  6  7  1  0  0  0  0
  7  8  2  0  0  0  0
  7 33  1  0  0  0  0
  8  9  1  0  0  0  0
  8 34  1  0  0  0  0
  9 10  2  0  0  0  0
  9 35  1  0  0  0  0
 10 11  1  0  0  0  0
 10 36  1  0  0  0  0
 11 12  1  0  0  0  0
 12 13  1  1  0  0  0
 12 14  1  0  0  0  0
 12 24  1  0  0  0  0
 14 15  1  0  0  0  0
 14 18  1  0  0  0  0
 15 16  1  0  0  0  0
 15 17  2  0  0  0  0
 16 37  1  0  0  0  0
 16 38  1  0  0  0  0
 16 39  1  0  0  0  0
 18 23  2  0  0  0  0
 18 19  1  0  0  0  0
 19 20  2  0  0  0  0
 19 40  1  0  0  0  0
 20 21  1  0  0  0  0
 20 41  1  0  0  0  0
 21 22  2  0  0  0  0
 21 42  1  0  0  0  0
 22 23  1  0  0  0  0
 22 43  1  0  0  0  0
 23 44  1  0  0  0  0
 24 25  1  0  0  0  0
 24 45  1  0  0  0  0
 24 46  1  0  0  0  0
 25 26  1  6  0  0  0
 25 27  1  0  0  0  0
 27 47  1  0  0  0  0
 27 48  1  0  0  0  0
 27 49  1  0  0  0  0
M  END
$$$$
