ZINC000000051313      none
 OpenBabel11202420153D

 36 38  0  0  0  0  0  0  0  0999 V2000
   33.1959   40.1188   57.5944 Cl  0  0  0  0  0  0  0  0  0  0  0  0
   32.9209   38.4298   57.8864 C   0  0  0  0  0  0  0  0  0  0  0  0
   33.0983   37.5537   56.9110 N   0  0  0  0  0  0  0  0  0  0  0  0
   32.8879   36.2585   57.1316 C   0  0  0  0  0  0  0  0  0  0  0  0
   33.0728   35.3454   56.1134 N   0  0  0  0  0  0  0  0  0  0  0  0
   32.8410   33.9196   56.3573 C   0  0  0  0  0  0  0  0  0  0  0  0
   33.7436   33.1046   55.4671 C   0  0  0  0  0  0  0  0  0  0  0  0
   33.3187   32.7121   54.2068 C   0  0  0  0  0  0  0  0  0  0  0  0
   34.1844   31.9672   53.4209 C   0  0  0  0  0  0  0  0  0  0  0  0
   35.4294   31.6339   53.9204 C   0  0  0  0  0  0  0  0  0  0  0  0
   35.7981   32.0204   55.1258 N   0  0  0  0  0  0  0  0  0  0  0  0
   35.0029   32.7343   55.8988 C   0  0  0  0  0  0  0  0  0  0  0  0
   32.4992   35.8452   58.3333 N   0  0  0  0  0  0  0  0  0  0  0  0
   32.3219   36.7274   59.3107 C   0  0  0  0  0  0  0  0  0  0  0  0
   31.9184   36.3022   60.5601 N   0  0  0  0  0  0  0  0  0  0  0  0
   32.5091   37.1366   61.6167 C   0  0  0  0  0  0  0  0  0  0  0  0
   32.0835   36.5955   62.9842 C   0  0  0  0  0  0  0  0  0  0  0  0
   30.6556   36.5609   63.0552 O   0  0  0  0  0  0  0  0  0  0  0  0
   30.0480   35.7563   62.0411 C   0  0  0  0  0  0  0  0  0  0  0  0
   30.4519   36.2894   60.6639 C   0  0  0  0  0  0  0  0  0  0  0  0
   32.5287   38.0222   59.0823 N   0  0  0  0  0  0  0  0  0  0  0  0
   33.3562   35.6478   55.2365 H   0  0  0  0  0  0  0  0  0  0  0  0
   33.0560   33.6897   57.4007 H   0  0  0  0  0  0  0  0  0  0  0  0
   31.8009   33.6780   56.1387 H   0  0  0  0  0  0  0  0  0  0  0  0
   32.3381   32.9835   53.8446 H   0  0  0  0  0  0  0  0  0  0  0  0
   33.8880   31.6474   52.4329 H   0  0  0  0  0  0  0  0  0  0  0  0
   36.1082   31.0503   53.3160 H   0  0  0  0  0  0  0  0  0  0  0  0
   35.3397   33.0325   56.8807 H   0  0  0  0  0  0  0  0  0  0  0  0
   32.1600   38.1633   61.5067 H   0  0  0  0  0  0  0  0  0  0  0  0
   33.5959   37.1105   61.5371 H   0  0  0  0  0  0  0  0  0  0  0  0
   32.4714   37.2446   63.7693 H   0  0  0  0  0  0  0  0  0  0  0  0
   32.4790   35.5884   63.1163 H   0  0  0  0  0  0  0  0  0  0  0  0
   30.3842   34.7247   62.1449 H   0  0  0  0  0  0  0  0  0  0  0  0
   28.9637   35.7979   62.1443 H   0  0  0  0  0  0  0  0  0  0  0  0
   30.0378   35.6452   59.8883 H   0  0  0  0  0  0  0  0  0  0  0  0
   30.0687   37.3022   60.5389 H   0  0  0  0  0  0  0  0  0  0  0  0
  1  2  1  0  0  0  0
  2 21  2  0  0  0  0
  2  3  1  0  0  0  0
  3  4  2  0  0  0  0
  4  5  1  0  0  0  0
  4 13  1  0  0  0  0
  5  6  1  0  0  0  0
  5 22  1  0  0  0  0
  6  7  1  0  0  0  0
  6 23  1  0  0  0  0
  6 24  1  0  0  0  0
  7 12  2  0  0  0  0
  7  8  1  0  0  0  0
  8  9  2  0  0  0  0
  8 25  1  0  0  0  0
  9 10  1  0  0  0  0
  9 26  1  0  0  0  0
 10 11  2  0  0  0  0
 10 27  1  0  0  0  0
 11 12  1  0  0  0  0
 12 28  1  0  0  0  0
 13 14  2  0  0  0  0
 14 15  1  0  0  0  0
 14 21  1  0  0  0  0
 15 20  1  0  0  0  0
 15 16  1  0  0  0  0
 16 17  1  0  0  0  0
 16 29  1  0  0  0  0
 16 30  1  0  0  0  0
 17 18  1  0  0  0  0
 17 31  1  0  0  0  0
 17 32  1  0  0  0  0
 18 19  1  0  0  0  0
 19 20  1  0  0  0  0
 19 33  1  0  0  0  0
 19 34  1  0  0  0  0
 20 35  1  0  0  0  0
 20 36  1  0  0  0  0
M  END
$$$$
