ZINC000000030005      none
 OpenBabel11202420163D

 29 30  0  0  0  0  0  0  0  0999 V2000
   32.7300   38.4328   65.5864 C   0  0  0  0  0  0  0  0  0  0  0  0
   32.3349   37.7875   64.2831 C   0  0  0  0  0  0  0  0  0  0  0  0
   31.3678   38.3725   63.4873 C   0  0  0  0  0  0  0  0  0  0  0  0
   31.0055   37.7807   62.2919 C   0  0  0  0  0  0  0  0  0  0  0  0
   31.6105   36.6037   61.8920 C   0  0  0  0  0  0  0  0  0  0  0  0
   31.2151   35.9582   60.5890 C   0  0  0  0  0  0  0  0  0  0  0  0
   32.0636   36.4734   59.5115 N   0  0  0  0  0  0  0  0  0  0  0  0
   31.6874   37.5692   58.8230 C   0  0  0  0  0  0  0  0  0  0  0  0
   30.6428   38.1307   59.0962 O   0  0  0  0  0  0  0  0  0  0  0  0
   32.5367   38.0850   57.7444 C   0  0  0  0  0  0  0  0  0  0  0  0
   33.0983   39.3284   57.6903 C   0  0  0  0  0  0  0  0  0  0  0  0
   33.8306   39.3887   56.4943 C   0  0  0  0  0  0  0  0  0  0  0  0
   33.6809   38.1966   55.8758 C   0  0  0  0  0  0  0  0  0  0  0  0
   32.8977   37.4151   56.6303 O   0  0  0  0  0  0  0  0  0  0  0  0
   32.5739   36.0159   62.6903 C   0  0  0  0  0  0  0  0  0  0  0  0
   32.9402   36.6109   63.8831 C   0  0  0  0  0  0  0  0  0  0  0  0
   32.0984   38.0494   66.3877 H   0  0  0  0  0  0  0  0  0  0  0  0
   33.7730   38.2030   65.8042 H   0  0  0  0  0  0  0  0  0  0  0  0
   32.6043   39.5129   65.5099 H   0  0  0  0  0  0  0  0  0  0  0  0
   30.8950   39.2919   63.7999 H   0  0  0  0  0  0  0  0  0  0  0  0
   30.2496   38.2374   61.6703 H   0  0  0  0  0  0  0  0  0  0  0  0
   30.1720   36.1880   60.3714 H   0  0  0  0  0  0  0  0  0  0  0  0
   31.3410   34.8781   60.6656 H   0  0  0  0  0  0  0  0  0  0  0  0
   32.8962   36.0259   59.2937 H   0  0  0  0  0  0  0  0  0  0  0  0
   33.0018   40.1120   58.4272 H   0  0  0  0  0  0  0  0  0  0  0  0
   34.4054   40.2298   56.1357 H   0  0  0  0  0  0  0  0  0  0  0  0
   34.1200   37.9199   54.9286 H   0  0  0  0  0  0  0  0  0  0  0  0
   33.0433   35.0941   62.3800 H   0  0  0  0  0  0  0  0  0  0  0  0
   33.6962   36.1541   64.5046 H   0  0  0  0  0  0  0  0  0  0  0  0
  1  2  1  0  0  0  0
  1 17  1  0  0  0  0
  1 18  1  0  0  0  0
  1 19  1  0  0  0  0
  2 16  2  0  0  0  0
  2  3  1  0  0  0  0
  3  4  2  0  0  0  0
  3 20  1  0  0  0  0
  4  5  1  0  0  0  0
  4 21  1  0  0  0  0
  5  6  1  0  0  0  0
  5 15  2  0  0  0  0
  6  7  1  0  0  0  0
  6 22  1  0  0  0  0
  6 23  1  0  0  0  0
  7  8  1  0  0  0  0
  7 24  1  0  0  0  0
  8  9  2  0  0  0  0
  8 10  1  0  0  0  0
 10 14  1  0  0  0  0
 10 11  2  0  0  0  0
 11 12  1  0  0  0  0
 11 25  1  0  0  0  0
 12 13  2  0  0  0  0
 12 26  1  0  0  0  0
 13 14  1  0  0  0  0
 13 27  1  0  0  0  0
 15 16  1  0  0  0  0
 15 28  1  0  0  0  0
 16 29  1  0  0  0  0
M  END
$$$$
