ZINC000000029612      none
 OpenBabel11202420163D

 33 34  0  0  0  0  0  0  0  0999 V2000
   29.3644   36.2980   60.9740 C   0  0  0  0  0  0  0  0  0  0  0  0
   30.8004   36.0643   61.1459 N   0  0  0  0  0  0  0  0  0  0  0  0
   31.2868   34.7323   61.5144 C   0  0  0  0  0  0  0  0  0  0  0  0
   30.6965   34.3314   62.8416 C   0  0  0  0  0  0  0  0  0  0  0  0
   30.4630   32.9976   63.1197 C   0  0  0  0  0  0  0  0  0  0  0  0
   29.9259   32.6293   64.3391 C   0  0  0  0  0  0  0  0  0  0  0  0
   29.6123   33.5958   65.2763 C   0  0  0  0  0  0  0  0  0  0  0  0
   29.8408   34.9301   64.9962 C   0  0  0  0  0  0  0  0  0  0  0  0
   30.3828   35.2979   63.7789 C   0  0  0  0  0  0  0  0  0  0  0  0
   31.8744   37.3038   60.9172 S   0  0  0  0  0  0  0  0  0  0  0  0
   31.1467   38.5076   61.1191 O   0  0  0  0  0  0  0  0  0  0  0  0
   33.0397   36.9669   61.6572 O   0  0  0  0  0  0  0  0  0  0  0  0
   32.3406   37.2832   59.2181 C   0  0  0  0  0  0  0  0  0  0  0  0
   32.6834   38.4615   58.5817 C   0  0  0  0  0  0  0  0  0  0  0  0
   33.0547   38.4458   57.2505 C   0  0  0  0  0  0  0  0  0  0  0  0
   33.0718   37.2508   56.5513 C   0  0  0  0  0  0  0  0  0  0  0  0
   33.4283   37.2352   55.2483 F   0  0  0  0  0  0  0  0  0  0  0  0
   32.7226   36.0722   57.1882 C   0  0  0  0  0  0  0  0  0  0  0  0
   32.3577   36.0895   58.5211 C   0  0  0  0  0  0  0  0  0  0  0  0
   29.0864   36.1050   59.9378 H   0  0  0  0  0  0  0  0  0  0  0  0
   28.8064   35.6302   61.6303 H   0  0  0  0  0  0  0  0  0  0  0  0
   29.1321   37.3327   61.2258 H   0  0  0  0  0  0  0  0  0  0  0  0
   30.9885   34.0128   60.7519 H   0  0  0  0  0  0  0  0  0  0  0  0
   32.3739   34.7508   61.5911 H   0  0  0  0  0  0  0  0  0  0  0  0
   30.7039   32.2428   62.3857 H   0  0  0  0  0  0  0  0  0  0  0  0
   29.7471   31.5870   64.5577 H   0  0  0  0  0  0  0  0  0  0  0  0
   29.1886   33.3087   66.2273 H   0  0  0  0  0  0  0  0  0  0  0  0
   29.5955   35.6853   65.7284 H   0  0  0  0  0  0  0  0  0  0  0  0
   30.5610   36.3403   63.5599 H   0  0  0  0  0  0  0  0  0  0  0  0
   32.6651   39.3942   59.1260 H   0  0  0  0  0  0  0  0  0  0  0  0
   33.3265   39.3659   56.7547 H   0  0  0  0  0  0  0  0  0  0  0  0
   32.7352   35.1395   56.6437 H   0  0  0  0  0  0  0  0  0  0  0  0
   32.0853   35.1701   59.0181 H   0  0  0  0  0  0  0  0  0  0  0  0
  1  2  1  0  0  0  0
  1 20  1  0  0  0  0
  1 21  1  0  0  0  0
  1 22  1  0  0  0  0
  2  3  1  0  0  0  0
  2 10  1  0  0  0  0
  3  4  1  0  0  0  0
  3 23  1  0  0  0  0
  3 24  1  0  0  0  0
  4  9  2  0  0  0  0
  4  5  1  0  0  0  0
  5  6  2  0  0  0  0
  5 25  1  0  0  0  0
  6  7  1  0  0  0  0
  6 26  1  0  0  0  0
  7  8  2  0  0  0  0
  7 27  1  0  0  0  0
  8  9  1  0  0  0  0
  8 28  1  0  0  0  0
  9 29  1  0  0  0  0
 10 11  2  0  0  0  0
 10 12  2  0  0  0  0
 10 13  1  0  0  0  0
 13 19  2  0  0  0  0
 13 14  1  0  0  0  0
 14 15  2  0  0  0  0
 14 30  1  0  0  0  0
 15 16  1  0  0  0  0
 15 31  1  0  0  0  0
 16 17  1  0  0  0  0
 16 18  2  0  0  0  0
 18 19  1  0  0  0  0
 18 32  1  0  0  0  0
 19 33  1  0  0  0  0
M  END
$$$$
