ZINC000000039598      none
 OpenBabel11202420153D

 23 23  0  0  0  0  0  0  0  0999 V2000
   32.1895   35.4730   63.0252 C   0  0  0  0  0  0  0  0  0  0  0  0
   31.0259   36.4527   62.8610 C   0  0  0  0  0  0  0  0  0  0  0  0
   30.5732   36.9423   64.2381 C   0  0  0  0  0  0  0  0  0  0  0  0
   29.8612   35.7486   62.1618 C   0  0  0  0  0  0  0  0  0  0  0  0
   31.4602   37.5961   62.0546 N   0  0  0  0  0  0  0  0  0  0  0  0
   31.9145   37.3993   60.7667 C   0  0  0  0  0  0  0  0  0  0  0  0
   32.3091   38.4365   60.0334 N   0  0  0  0  0  0  0  0  0  0  0  0
   32.7443   38.2446   58.7997 C   0  0  0  0  0  0  0  0  0  0  0  0
   33.2596   39.5975   57.8417 Cl  0  0  0  0  0  0  0  0  0  0  0  0
   32.7881   37.0212   58.2941 N   0  0  0  0  0  0  0  0  0  0  0  0
   32.3958   35.9865   59.0217 C   0  0  0  0  0  0  0  0  0  0  0  0
   32.4545   34.3850   58.3543 Cl  0  0  0  0  0  0  0  0  0  0  0  0
   31.9591   36.1720   60.2560 N   0  0  0  0  0  0  0  0  0  0  0  0
   33.0192   35.9745   63.5232 H   0  0  0  0  0  0  0  0  0  0  0  0
   31.8664   34.6222   63.6250 H   0  0  0  0  0  0  0  0  0  0  0  0
   32.5120   35.1242   62.0441 H   0  0  0  0  0  0  0  0  0  0  0  0
   29.7442   37.6402   64.1211 H   0  0  0  0  0  0  0  0  0  0  0  0
   30.2500   36.0915   64.8379 H   0  0  0  0  0  0  0  0  0  0  0  0
   31.4029   37.4438   64.7362 H   0  0  0  0  0  0  0  0  0  0  0  0
   30.1837   35.3999   61.1807 H   0  0  0  0  0  0  0  0  0  0  0  0
   29.5382   34.8978   62.7617 H   0  0  0  0  0  0  0  0  0  0  0  0
   29.0321   36.4466   62.0449 H   0  0  0  0  0  0  0  0  0  0  0  0
   31.4283   38.4916   62.4262 H   0  0  0  0  0  0  0  0  0  0  0  0
  1  2  1  0  0  0  0
  1 14  1  0  0  0  0
  1 15  1  0  0  0  0
  1 16  1  0  0  0  0
  2  3  1  0  0  0  0
  2  4  1  0  0  0  0
  2  5  1  0  0  0  0
  3 17  1  0  0  0  0
  3 18  1  0  0  0  0
  3 19  1  0  0  0  0
  4 20  1  0  0  0  0
  4 21  1  0  0  0  0
  4 22  1  0  0  0  0
  5  6  1  0  0  0  0
  5 23  1  0  0  0  0
  6 13  2  0  0  0  0
  6  7  1  0  0  0  0
  7  8  2  0  0  0  0
  8  9  1  0  0  0  0
  8 10  1  0  0  0  0
 10 11  2  0  0  0  0
 11 12  1  0  0  0  0
 11 13  1  0  0  0  0
M  END
$$$$
