ZINC000000034380      none
 OpenBabel11202420153D

 26 28  0  0  0  0  0  0  0  0999 V2000
   31.1389   35.2450   61.8962 C   0  0  0  0  0  0  0  0  0  0  0  0
   31.1969   36.6248   62.3853 N   0  0  0  0  0  0  0  0  0  0  0  0
   31.2407   37.0376   63.6884 C   0  0  0  0  0  0  0  0  0  0  0  0
   31.2849   38.3399   63.6813 N   0  0  0  0  0  0  0  0  0  0  0  0
   31.2769   38.7751   62.4719 N   0  0  0  0  0  0  0  0  0  0  0  0
   31.2185   37.7653   61.6351 C   0  0  0  0  0  0  0  0  0  0  0  0
   31.1826   37.8631   59.8761 S   0  0  0  0  0  0  0  0  0  0  0  0
   32.7497   38.7180   59.5767 C   0  0  0  0  0  0  0  0  0  0  0  0
   33.1812   38.4911   58.1508 C   0  0  0  0  0  0  0  0  0  0  0  0
   33.1012   37.2001   57.6137 C   0  0  0  0  0  0  0  0  0  0  0  0
   33.4735   36.9293   56.3382 C   0  0  0  0  0  0  0  0  0  0  0  0
   33.9556   37.9716   55.5228 C   0  0  0  0  0  0  0  0  0  0  0  0
   34.3970   38.1386   54.3006 N   0  0  0  0  0  0  0  0  0  0  0  0
   34.6860   39.3072   54.1388 O   0  0  0  0  0  0  0  0  0  0  0  0
   34.5149   40.0406   55.0919 N   0  0  0  0  0  0  0  0  0  0  0  0
   34.0398   39.3399   56.0919 C   0  0  0  0  0  0  0  0  0  0  0  0
   33.6351   39.5432   57.4255 C   0  0  0  0  0  0  0  0  0  0  0  0
   32.1513   34.8680   61.7514 H   0  0  0  0  0  0  0  0  0  0  0  0
   30.6201   34.6225   62.6252 H   0  0  0  0  0  0  0  0  0  0  0  0
   30.6020   35.2181   60.9478 H   0  0  0  0  0  0  0  0  0  0  0  0
   31.2392   36.4022   64.5615 H   0  0  0  0  0  0  0  0  0  0  0  0
   33.5108   38.3289   60.2530 H   0  0  0  0  0  0  0  0  0  0  0  0
   32.6200   39.7860   59.7516 H   0  0  0  0  0  0  0  0  0  0  0  0
   32.7324   36.3964   58.2337 H   0  0  0  0  0  0  0  0  0  0  0  0
   33.4053   35.9228   55.9526 H   0  0  0  0  0  0  0  0  0  0  0  0
   33.6853   40.5279   57.8663 H   0  0  0  0  0  0  0  0  0  0  0  0
  1  2  1  0  0  0  0
  1 18  1  0  0  0  0
  1 19  1  0  0  0  0
  1 20  1  0  0  0  0
  2  6  1  0  0  0  0
  2  3  1  0  0  0  0
  3  4  2  0  0  0  0
  3 21  1  0  0  0  0
  4  5  1  0  0  0  0
  5  6  2  0  0  0  0
  6  7  1  0  0  0  0
  7  8  1  0  0  0  0
  8  9  1  0  0  0  0
  8 22  1  0  0  0  0
  8 23  1  0  0  0  0
  9 17  2  0  0  0  0
  9 10  1  0  0  0  0
 10 11  2  0  0  0  0
 10 24  1  0  0  0  0
 11 12  1  0  0  0  0
 11 25  1  0  0  0  0
 12 16  1  0  0  0  0
 12 13  2  0  0  0  0
 13 14  1  0  0  0  0
 14 15  1  0  0  0  0
 15 16  2  0  0  0  0
 16 17  1  0  0  0  0
 17 26  1  0  0  0  0
M  END
$$$$
