ZINC000000053301      none
 OpenBabel11202420153D

 40 43  0  0  0  0  0  0  0  0999 V2000
   29.9087   36.9715   62.1491 O   0  0  0  0  0  0  0  0  0  0  0  0
   30.4664   37.9939   62.4882 C   0  0  0  0  0  0  0  0  0  0  0  0
   30.0492   38.6953   63.7552 C   0  0  0  0  0  0  0  0  0  0  0  0
   31.2228   38.7704   64.6976 C   0  0  0  0  0  0  0  0  0  0  0  0
   31.3290   39.8237   65.5866 C   0  0  0  0  0  0  0  0  0  0  0  0
   32.4053   39.8922   66.4514 C   0  0  0  0  0  0  0  0  0  0  0  0
   33.3762   38.9087   66.4259 C   0  0  0  0  0  0  0  0  0  0  0  0
   33.2695   37.8551   65.5375 C   0  0  0  0  0  0  0  0  0  0  0  0
   32.1927   37.7858   64.6734 C   0  0  0  0  0  0  0  0  0  0  0  0
   31.4592   38.5027   61.7319 N   0  0  0  0  0  0  0  0  0  0  0  0
   31.8470   37.8509   60.5543 C   0  0  0  0  0  0  0  0  0  0  0  0
   31.7147   36.4677   60.4512 C   0  0  0  0  0  0  0  0  0  0  0  0
   32.0921   35.8142   59.2978 C   0  0  0  0  0  0  0  0  0  0  0  0
   32.6080   36.5339   58.2304 C   0  0  0  0  0  0  0  0  0  0  0  0
   33.0548   36.1912   57.0013 O   0  0  0  0  0  0  0  0  0  0  0  0
   33.4473   37.3141   56.3707 C   0  0  0  0  0  0  0  0  0  0  0  0
   34.0008   37.3673   55.0000 C   0  0  0  0  0  0  0  0  0  0  0  0
   33.7901   36.3183   54.0982 C   0  0  0  0  0  0  0  0  0  0  0  0
   34.3199   36.4123   52.8272 C   0  0  0  0  0  0  0  0  0  0  0  0
   35.0255   37.4658   52.4637 N   0  0  0  0  0  0  0  0  0  0  0  0
   35.2522   38.4734   53.2837 C   0  0  0  0  0  0  0  0  0  0  0  0
   34.7548   38.4653   54.5711 C   0  0  0  0  0  0  0  0  0  0  0  0
   33.2682   38.3511   57.1478 N   0  0  0  0  0  0  0  0  0  0  0  0
   32.7451   37.9286   58.3267 C   0  0  0  0  0  0  0  0  0  0  0  0
   32.3543   38.5834   59.4974 C   0  0  0  0  0  0  0  0  0  0  0  0
   29.2387   38.1403   64.2277 H   0  0  0  0  0  0  0  0  0  0  0  0
   29.7090   39.7032   63.5174 H   0  0  0  0  0  0  0  0  0  0  0  0
   30.5735   40.5953   65.6024 H   0  0  0  0  0  0  0  0  0  0  0  0
   32.4884   40.7154   67.1457 H   0  0  0  0  0  0  0  0  0  0  0  0
   34.2175   38.9627   67.1010 H   0  0  0  0  0  0  0  0  0  0  0  0
   34.0275   37.0859   65.5183 H   0  0  0  0  0  0  0  0  0  0  0  0
   32.1095   36.9628   63.9791 H   0  0  0  0  0  0  0  0  0  0  0  0
   31.9051   39.3203   62.0032 H   0  0  0  0  0  0  0  0  0  0  0  0
   31.3133   35.9040   61.2804 H   0  0  0  0  0  0  0  0  0  0  0  0
   31.9858   34.7419   59.2251 H   0  0  0  0  0  0  0  0  0  0  0  0
   33.2177   35.4505   54.3907 H   0  0  0  0  0  0  0  0  0  0  0  0
   34.1587   35.6101   52.1224 H   0  0  0  0  0  0  0  0  0  0  0  0
   35.8352   39.3164   52.9433 H   0  0  0  0  0  0  0  0  0  0  0  0
   34.9448   39.2939   55.2374 H   0  0  0  0  0  0  0  0  0  0  0  0
   32.4517   39.6560   59.5776 H   0  0  0  0  0  0  0  0  0  0  0  0
  1  2  2  0  0  0  0
  2  3  1  0  0  0  0
  2 10  1  0  0  0  0
  3  4  1  0  0  0  0
  3 26  1  0  0  0  0
  3 27  1  0  0  0  0
  4  9  2  0  0  0  0
  4  5  1  0  0  0  0
  5  6  2  0  0  0  0
  5 28  1  0  0  0  0
  6  7  1  0  0  0  0
  6 29  1  0  0  0  0
  7  8  2  0  0  0  0
  7 30  1  0  0  0  0
  8  9  1  0  0  0  0
  8 31  1  0  0  0  0
  9 32  1  0  0  0  0
 10 11  1  0  0  0  0
 10 33  1  0  0  0  0
 11 25  2  0  0  0  0
 11 12  1  0  0  0  0
 12 13  2  0  0  0  0
 12 34  1  0  0  0  0
 13 14  1  0  0  0  0
 13 35  1  0  0  0  0
 14 24  2  0  0  0  0
 14 15  1  0  0  0  0
 15 16  1  0  0  0  0
 16 17  1  0  0  0  0
 16 23  2  0  0  0  0
 17 22  2  0  0  0  0
 17 18  1  0  0  0  0
 18 19  2  0  0  0  0
 18 36  1  0  0  0  0
 19 20  1  0  0  0  0
 19 37  1  0  0  0  0
 20 21  2  0  0  0  0
 21 22  1  0  0  0  0
 21 38  1  0  0  0  0
 22 39  1  0  0  0  0
 23 24  1  0  0  0  0
 24 25  1  0  0  0  0
 25 40  1  0  0  0  0
M  END
$$$$
