ZINC000000037917      none
 OpenBabel11202420153D

 34 36  0  0  0  0  0  0  0  0999 V2000
   31.4253   33.6919   57.7014 N   0  0  0  0  0  0  0  0  0  0  0  0
   32.4074   34.3193   58.3784 C   0  0  0  0  0  0  0  0  0  0  0  0
   33.4377   33.7279   58.6435 O   0  0  0  0  0  0  0  0  0  0  0  0
   32.2347   35.7142   58.7954 C   0  0  0  0  0  0  0  0  0  0  0  0
   32.6009   36.7784   58.0243 C   0  0  0  0  0  0  0  0  0  0  0  0
   33.1746   36.6789   56.7670 N   0  0  0  0  0  0  0  0  0  0  0  0
   33.5008   37.7947   56.0849 C   0  0  0  0  0  0  0  0  0  0  0  0
   33.2917   38.8884   56.5730 O   0  0  0  0  0  0  0  0  0  0  0  0
   34.1123   37.6886   54.7451 C   0  0  0  0  0  0  0  0  0  0  0  0
   33.8602   36.5708   53.9460 C   0  0  0  0  0  0  0  0  0  0  0  0
   34.4387   36.4741   52.6988 C   0  0  0  0  0  0  0  0  0  0  0  0
   35.2604   37.4899   52.2320 C   0  0  0  0  0  0  0  0  0  0  0  0
   35.8204   37.3913   51.0065 F   0  0  0  0  0  0  0  0  0  0  0  0
   35.5138   38.6006   53.0209 C   0  0  0  0  0  0  0  0  0  0  0  0
   34.9453   38.7051   54.2723 C   0  0  0  0  0  0  0  0  0  0  0  0
   32.2644   38.2438   58.8194 S   0  0  0  0  0  0  0  0  0  0  0  0
   31.6001   37.4226   60.2313 C   0  0  0  0  0  0  0  0  0  0  0  0
   31.6535   36.1026   60.0773 C   0  0  0  0  0  0  0  0  0  0  0  0
   31.0808   35.4043   61.3076 C   0  0  0  0  0  0  0  0  0  0  0  0
   31.0814   36.4809   62.4112 C   0  0  0  0  0  0  0  0  0  0  0  0
   30.9872   37.7769   61.5808 C   0  0  0  0  0  0  0  0  0  0  0  0
   30.6043   34.1631   57.4900 H   0  0  0  0  0  0  0  0  0  0  0  0
   31.5396   32.7690   57.4254 H   0  0  0  0  0  0  0  0  0  0  0  0
   33.3413   35.8063   56.3777 H   0  0  0  0  0  0  0  0  0  0  0  0
   33.2169   35.7819   54.3069 H   0  0  0  0  0  0  0  0  0  0  0  0
   34.2483   35.6080   52.0822 H   0  0  0  0  0  0  0  0  0  0  0  0
   36.1583   39.3859   52.6544 H   0  0  0  0  0  0  0  0  0  0  0  0
   35.1438   39.5713   54.8859 H   0  0  0  0  0  0  0  0  0  0  0  0
   30.0644   35.0633   61.1111 H   0  0  0  0  0  0  0  0  0  0  0  0
   31.7140   34.5653   61.5961 H   0  0  0  0  0  0  0  0  0  0  0  0
   32.0075   36.4513   62.9853 H   0  0  0  0  0  0  0  0  0  0  0  0
   30.2157   36.3719   63.0645 H   0  0  0  0  0  0  0  0  0  0  0  0
   31.5560   38.5751   62.0578 H   0  0  0  0  0  0  0  0  0  0  0  0
   29.9461   38.0755   61.4579 H   0  0  0  0  0  0  0  0  0  0  0  0
  1  2  1  0  0  0  0
  1 22  1  0  0  0  0
  1 23  1  0  0  0  0
  2  3  2  0  0  0  0
  2  4  1  0  0  0  0
  4 18  1  0  0  0  0
  4  5  2  0  0  0  0
  5  6  1  0  0  0  0
  5 16  1  0  0  0  0
  6  7  1  0  0  0  0
  6 24  1  0  0  0  0
  7  8  2  0  0  0  0
  7  9  1  0  0  0  0
  9 15  2  0  0  0  0
  9 10  1  0  0  0  0
 10 11  2  0  0  0  0
 10 25  1  0  0  0  0
 11 12  1  0  0  0  0
 11 26  1  0  0  0  0
 12 13  1  0  0  0  0
 12 14  2  0  0  0  0
 14 15  1  0  0  0  0
 14 27  1  0  0  0  0
 15 28  1  0  0  0  0
 16 17  1  0  0  0  0
 17 21  1  0  0  0  0
 17 18  2  0  0  0  0
 18 19  1  0  0  0  0
 19 20  1  0  0  0  0
 19 29  1  0  0  0  0
 19 30  1  0  0  0  0
 20 21  1  0  0  0  0
 20 31  1  0  0  0  0
 20 32  1  0  0  0  0
 21 33  1  0  0  0  0
 21 34  1  0  0  0  0
M  END
$$$$
