ZINC000000000726      none
 OpenBabel11202420153D

 23 25  0  0  1  0  0  0  0  0999 V2000
   33.4639   32.8503   60.9211 O   0  0  0  0  0  0  0  0  0  0  0  0
   32.5118   33.5516   61.1883 C   0  0  0  0  0  0  0  0  0  0  0  0
   32.3067   34.1886   62.3523 N   0  0  0  0  0  0  0  0  0  0  0  0
   31.2594   35.0274   62.3419 C   0  0  0  0  0  0  0  0  0  0  0  0
   30.7980   35.5979   63.3069 O   0  0  0  0  0  0  0  0  0  0  0  0
   30.7526   35.1424   60.9127 C   0  0  1  0  0  0  0  0  0  0  0  0
   29.6674   35.2050   60.8328 H   0  0  0  0  0  0  0  0  0  0  0  0
   31.4917   36.2912   60.2079 C   0  0  0  0  0  0  0  0  0  0  0  0
   31.5861   37.6298   60.5555 C   0  0  0  0  0  0  0  0  0  0  0  0
   32.3209   38.5006   59.7757 C   0  0  0  0  0  0  0  0  0  0  0  0
   32.9650   38.0369   58.6436 C   0  0  0  0  0  0  0  0  0  0  0  0
   32.8698   36.7045   58.2942 C   0  0  0  0  0  0  0  0  0  0  0  0
   32.1311   35.8297   59.0748 C   0  0  0  0  0  0  0  0  0  0  0  0
   31.8735   34.3490   58.9059 C   0  0  0  0  0  0  0  0  0  0  0  0
   31.3502   33.8588   60.2663 C   0  0  1  0  0  0  0  0  0  0  0  0
   30.6370   33.0388   60.1833 H   0  0  0  0  0  0  0  0  0  0  0  0
   32.8645   34.0511   63.1339 H   0  0  0  0  0  0  0  0  0  0  0  0
   31.0827   37.9928   61.4394 H   0  0  0  0  0  0  0  0  0  0  0  0
   32.3928   39.5426   60.0500 H   0  0  0  0  0  0  0  0  0  0  0  0
   33.5414   38.7162   58.0330 H   0  0  0  0  0  0  0  0  0  0  0  0
   33.3731   36.3427   57.4098 H   0  0  0  0  0  0  0  0  0  0  0  0
   32.7989   33.8328   58.6504 H   0  0  0  0  0  0  0  0  0  0  0  0
   31.1242   34.1821   58.1321 H   0  0  0  0  0  0  0  0  0  0  0  0
  1  2  2  0  0  0  0
  2 15  1  0  0  0  0
  2  3  1  0  0  0  0
  3  4  1  0  0  0  0
  3 17  1  0  0  0  0
  4  5  2  0  0  0  0
  4  6  1  0  0  0  0
  6  7  1  6  0  0  0
  6 15  1  0  0  0  0
  6  8  1  0  0  0  0
  8 13  2  0  0  0  0
  8  9  1  0  0  0  0
  9 10  2  0  0  0  0
  9 18  1  0  0  0  0
 10 11  1  0  0  0  0
 10 19  1  0  0  0  0
 11 12  2  0  0  0  0
 11 20  1  0  0  0  0
 12 13  1  0  0  0  0
 12 21  1  0  0  0  0
 13 14  1  0  0  0  0
 14 15  1  0  0  0  0
 14 22  1  0  0  0  0
 14 23  1  0  0  0  0
 15 16  1  6  0  0  0
M  END
$$$$
