ZINC000000011168      none
 OpenBabel11202420153D

 28 28  0  0  1  0  0  0  0  0999 V2000
   30.4872   36.5046   60.2505 C   0  0  0  0  0  0  0  0  0  0  0  0
   30.5483   36.9900   61.6760 C   0  0  0  0  0  0  0  0  0  0  0  0
   30.8376   38.2611   61.9259 C   0  0  0  0  0  0  0  0  0  0  0  0
   30.9284   38.8252   63.3126 C   0  0  0  0  0  0  0  0  0  0  0  0
   30.1511   37.9667   64.3094 C   0  0  2  0  0  0  0  0  0  0  0  0
   29.0850   38.0312   64.0925 H   0  0  0  0  0  0  0  0  0  0  0  0
   30.4173   38.4655   65.7312 C   0  0  0  0  0  0  0  0  0  0  0  0
   29.9658   39.9222   65.8533 C   0  0  0  0  0  0  0  0  0  0  0  0
   29.6382   37.6048   66.7277 C   0  0  0  0  0  0  0  0  0  0  0  0
   31.8150   38.3746   66.0140 O   0  0  0  0  0  0  0  0  0  0  0  0
   30.6142   36.5083   64.1816 C   0  0  0  0  0  0  0  0  0  0  0  0
   30.2817   36.0549   62.7739 C   0  0  0  0  0  0  0  0  0  0  0  0
   29.8150   34.9552   62.5619 O   0  0  0  0  0  0  0  0  0  0  0  0
   31.4722   36.1527   59.9439 H   0  0  0  0  0  0  0  0  0  0  0  0
   30.1753   37.3227   59.6012 H   0  0  0  0  0  0  0  0  0  0  0  0
   29.7698   35.6873   60.1754 H   0  0  0  0  0  0  0  0  0  0  0  0
   31.0167   38.9212   61.0900 H   0  0  0  0  0  0  0  0  0  0  0  0
   31.9751   38.8644   63.6146 H   0  0  0  0  0  0  0  0  0  0  0  0
   30.5186   39.8353   63.3152 H   0  0  0  0  0  0  0  0  0  0  0  0
   28.8996   39.9915   65.6376 H   0  0  0  0  0  0  0  0  0  0  0  0
   30.1554   40.2777   66.8662 H   0  0  0  0  0  0  0  0  0  0  0  0
   30.5208   40.5354   65.1433 H   0  0  0  0  0  0  0  0  0  0  0  0
   29.9599   36.5670   66.6406 H   0  0  0  0  0  0  0  0  0  0  0  0
   29.8279   37.9602   67.7406 H   0  0  0  0  0  0  0  0  0  0  0  0
   28.5721   37.6741   66.5121 H   0  0  0  0  0  0  0  0  0  0  0  0
   32.0572   38.6750   66.9007 H   0  0  0  0  0  0  0  0  0  0  0  0
   31.6890   36.4442   64.3513 H   0  0  0  0  0  0  0  0  0  0  0  0
   30.0859   35.8867   64.9045 H   0  0  0  0  0  0  0  0  0  0  0  0
  1  2  1  0  0  0  0
  1 14  1  0  0  0  0
  1 15  1  0  0  0  0
  1 16  1  0  0  0  0
  2 12  1  0  0  0  0
  2  3  2  0  0  0  0
  3  4  1  0  0  0  0
  3 17  1  0  0  0  0
  4  5  1  0  0  0  0
  4 18  1  0  0  0  0
  4 19  1  0  0  0  0
  5  6  1  6  0  0  0
  5  7  1  0  0  0  0
  5 11  1  0  0  0  0
  7  8  1  0  0  0  0
  7  9  1  0  0  0  0
  7 10  1  0  0  0  0
  8 20  1  0  0  0  0
  8 21  1  0  0  0  0
  8 22  1  0  0  0  0
  9 23  1  0  0  0  0
  9 24  1  0  0  0  0
  9 25  1  0  0  0  0
 10 26  1  0  0  0  0
 11 12  1  0  0  0  0
 11 27  1  0  0  0  0
 11 28  1  0  0  0  0
 12 13  2  0  0  0  0
M  END
$$$$
