ZINC000000006097      none
 OpenBabel11202420153D

 43 44  0  0  0  0  0  0  0  0999 V2000
   32.5765   33.2249   60.8627 C   0  0  0  0  0  0  0  0  0  0  0  0
   31.6300   33.8796   60.0155 O   0  0  0  0  0  0  0  0  0  0  0  0
   32.1254   34.7190   59.0719 C   0  0  0  0  0  0  0  0  0  0  0  0
   32.4390   34.2411   57.8115 C   0  0  0  0  0  0  0  0  0  0  0  0
   32.9508   35.1042   56.8511 C   0  0  0  0  0  0  0  0  0  0  0  0
   33.2703   34.6223   55.5861 N   0  0  0  0  0  0  0  0  0  0  0  0
   33.1450   36.4529   57.1505 C   0  0  0  0  0  0  0  0  0  0  0  0
   33.7852   37.5222   55.9421 Cl  0  0  0  0  0  0  0  0  0  0  0  0
   32.8345   36.9357   58.3890 C   0  0  0  0  0  0  0  0  0  0  0  0
   32.3175   36.0782   59.3674 C   0  0  0  0  0  0  0  0  0  0  0  0
   31.9822   36.5979   60.7016 C   0  0  0  0  0  0  0  0  0  0  0  0
   32.1493   37.7750   60.9551 O   0  0  0  0  0  0  0  0  0  0  0  0
   31.4896   35.7689   61.6435 O   0  0  0  0  0  0  0  0  0  0  0  0
   31.7912   36.0898   63.0272 C   0  0  0  0  0  0  0  0  0  0  0  0
   30.6985   37.0015   63.5892 C   0  0  0  0  0  0  0  0  0  0  0  0
   31.0038   37.3261   64.9890 N   0  3  0  0  0  0  0  0  0  0  0  0
   31.3635   36.5049   65.4518 H   0  0  0  0  0  0  0  0  0  0  0  0
   29.7789   37.7699   65.6651 C   0  0  0  0  0  0  0  0  0  0  0  0
   30.0745   38.0314   67.1436 C   0  0  0  0  0  0  0  0  0  0  0  0
   31.1464   39.1191   67.2595 C   0  0  0  0  0  0  0  0  0  0  0  0
   32.3931   38.6778   66.4874 C   0  0  0  0  0  0  0  0  0  0  0  0
   32.0115   38.3925   65.0333 C   0  0  0  0  0  0  0  0  0  0  0  0
   33.2491   32.6189   60.2557 H   0  0  0  0  0  0  0  0  0  0  0  0
   33.1531   33.9718   61.4086 H   0  0  0  0  0  0  0  0  0  0  0  0
   32.0491   32.5847   61.5700 H   0  0  0  0  0  0  0  0  0  0  0  0
   32.2895   33.1977   57.5763 H   0  0  0  0  0  0  0  0  0  0  0  0
   33.6275   35.2236   54.9140 H   0  0  0  0  0  0  0  0  0  0  0  0
   33.1360   33.6849   55.3760 H   0  0  0  0  0  0  0  0  0  0  0  0
   32.9877   37.9808   58.6142 H   0  0  0  0  0  0  0  0  0  0  0  0
   32.7530   36.6000   63.0805 H   0  0  0  0  0  0  0  0  0  0  0  0
   31.8343   35.1711   63.6122 H   0  0  0  0  0  0  0  0  0  0  0  0
   29.7367   36.4912   63.5360 H   0  0  0  0  0  0  0  0  0  0  0  0
   30.6554   37.9202   63.0043 H   0  0  0  0  0  0  0  0  0  0  0  0
   29.0160   36.9962   65.5789 H   0  0  0  0  0  0  0  0  0  0  0  0
   29.4194   38.6874   65.1991 H   0  0  0  0  0  0  0  0  0  0  0  0
   29.1645   38.3623   67.6438 H   0  0  0  0  0  0  0  0  0  0  0  0
   30.4338   37.1144   67.6105 H   0  0  0  0  0  0  0  0  0  0  0  0
   30.7675   40.0504   66.8385 H   0  0  0  0  0  0  0  0  0  0  0  0
   31.4014   39.2690   68.3086 H   0  0  0  0  0  0  0  0  0  0  0  0
   33.1402   39.4709   66.5186 H   0  0  0  0  0  0  0  0  0  0  0  0
   32.8011   37.7744   66.9407 H   0  0  0  0  0  0  0  0  0  0  0  0
   31.6039   39.2965   64.5810 H   0  0  0  0  0  0  0  0  0  0  0  0
   32.8968   38.0777   64.4809 H   0  0  0  0  0  0  0  0  0  0  0  0
  1  2  1  0  0  0  0
  1 23  1  0  0  0  0
  1 24  1  0  0  0  0
  1 25  1  0  0  0  0
  2  3  1  0  0  0  0
  3 10  2  0  0  0  0
  3  4  1  0  0  0  0
  4  5  2  0  0  0  0
  4 26  1  0  0  0  0
  5  6  1  0  0  0  0
  5  7  1  0  0  0  0
  6 27  1  0  0  0  0
  6 28  1  0  0  0  0
  7  8  1  0  0  0  0
  7  9  2  0  0  0  0
  9 10  1  0  0  0  0
  9 29  1  0  0  0  0
 10 11  1  0  0  0  0
 11 12  2  0  0  0  0
 11 13  1  0  0  0  0
 13 14  1  0  0  0  0
 14 15  1  0  0  0  0
 14 30  1  0  0  0  0
 14 31  1  0  0  0  0
 15 16  1  0  0  0  0
 15 32  1  0  0  0  0
 15 33  1  0  0  0  0
 16 17  1  0  0  0  0
 16 22  1  0  0  0  0
 16 18  1  0  0  0  0
 18 19  1  0  0  0  0
 18 34  1  0  0  0  0
 18 35  1  0  0  0  0
 19 20  1  0  0  0  0
 19 36  1  0  0  0  0
 19 37  1  0  0  0  0
 20 21  1  0  0  0  0
 20 38  1  0  0  0  0
 20 39  1  0  0  0  0
 21 22  1  0  0  0  0
 21 40  1  0  0  0  0
 21 41  1  0  0  0  0
 22 42  1  0  0  0  0
 22 43  1  0  0  0  0
M  CHG  1  16   1
M  END
$$$$
