ZINC000000051343      none
 OpenBabel11202420153D

 35 37  0  0  0  0  0  0  0  0999 V2000
   32.7628   34.1463   60.7488 O   0  0  0  0  0  0  0  0  0  0  0  0
   32.2277   35.1666   61.1278 C   0  0  0  0  0  0  0  0  0  0  0  0
   31.7901   35.2992   62.5638 C   0  0  0  0  0  0  0  0  0  0  0  0
   31.8561   36.6936   62.9631 O   0  0  0  0  0  0  0  0  0  0  0  0
   32.6727   36.9977   63.9928 C   0  0  0  0  0  0  0  0  0  0  0  0
   33.6723   36.3343   64.1927 O   0  0  0  0  0  0  0  0  0  0  0  0
   32.3556   38.1268   64.8703 C   0  0  0  0  0  0  0  0  0  0  0  0
   33.0896   38.5382   65.9470 C   0  0  0  0  0  0  0  0  0  0  0  0
   32.4241   39.6482   66.4884 C   0  0  0  0  0  0  0  0  0  0  0  0
   31.3220   39.8584   65.7344 C   0  0  0  0  0  0  0  0  0  0  0  0
   31.2842   38.9398   64.7607 O   0  0  0  0  0  0  0  0  0  0  0  0
   32.0248   36.1818   60.2649 N   0  0  0  0  0  0  0  0  0  0  0  0
   32.4303   36.0589   58.9347 C   0  0  0  0  0  0  0  0  0  0  0  0
   32.4522   34.8227   58.3258 C   0  0  0  0  0  0  0  0  0  0  0  0
   32.8534   34.6895   57.0000 C   0  0  0  0  0  0  0  0  0  0  0  0
   33.2360   35.7728   56.2690 C   0  0  0  0  0  0  0  0  0  0  0  0
   33.2285   37.0510   56.8526 C   0  0  0  0  0  0  0  0  0  0  0  0
   33.6176   38.1874   56.1223 C   0  0  0  0  0  0  0  0  0  0  0  0
   33.5980   39.4106   56.7187 C   0  0  0  0  0  0  0  0  0  0  0  0
   33.1972   39.5553   58.0454 C   0  0  0  0  0  0  0  0  0  0  0  0
   32.8139   38.4769   58.7829 C   0  0  0  0  0  0  0  0  0  0  0  0
   32.8211   37.1993   58.2014 C   0  0  0  0  0  0  0  0  0  0  0  0
   30.7660   34.9400   62.6660 H   0  0  0  0  0  0  0  0  0  0  0  0
   32.4480   34.7074   63.2003 H   0  0  0  0  0  0  0  0  0  0  0  0
   34.0057   38.0958   66.3095 H   0  0  0  0  0  0  0  0  0  0  0  0
   32.7321   40.2243   67.3484 H   0  0  0  0  0  0  0  0  0  0  0  0
   30.5918   40.6384   65.8917 H   0  0  0  0  0  0  0  0  0  0  0  0
   31.5968   36.9979   60.5682 H   0  0  0  0  0  0  0  0  0  0  0  0
   32.1537   33.9475   58.8837 H   0  0  0  0  0  0  0  0  0  0  0  0
   32.8620   33.7108   56.5434 H   0  0  0  0  0  0  0  0  0  0  0  0
   33.5408   35.6502   55.2402 H   0  0  0  0  0  0  0  0  0  0  0  0
   33.9310   38.0903   55.0933 H   0  0  0  0  0  0  0  0  0  0  0  0
   33.8978   40.2819   56.1555 H   0  0  0  0  0  0  0  0  0  0  0  0
   33.1910   40.5371   58.4954 H   0  0  0  0  0  0  0  0  0  0  0  0
   32.5053   38.6039   59.8101 H   0  0  0  0  0  0  0  0  0  0  0  0
  1  2  2  0  0  0  0
  2  3  1  0  0  0  0
  2 12  1  0  0  0  0
  3  4  1  0  0  0  0
  3 23  1  0  0  0  0
  3 24  1  0  0  0  0
  4  5  1  0  0  0  0
  5  6  2  0  0  0  0
  5  7  1  0  0  0  0
  7 11  1  0  0  0  0
  7  8  2  0  0  0  0
  8  9  1  0  0  0  0
  8 25  1  0  0  0  0
  9 10  2  0  0  0  0
  9 26  1  0  0  0  0
 10 11  1  0  0  0  0
 10 27  1  0  0  0  0
 12 13  1  0  0  0  0
 12 28  1  0  0  0  0
 13 22  2  0  0  0  0
 13 14  1  0  0  0  0
 14 15  2  0  0  0  0
 14 29  1  0  0  0  0
 15 16  1  0  0  0  0
 15 30  1  0  0  0  0
 16 17  2  0  0  0  0
 16 31  1  0  0  0  0
 17 22  1  0  0  0  0
 17 18  1  0  0  0  0
 18 19  2  0  0  0  0
 18 32  1  0  0  0  0
 19 20  1  0  0  0  0
 19 33  1  0  0  0  0
 20 21  2  0  0  0  0
 20 34  1  0  0  0  0
 21 22  1  0  0  0  0
 21 35  1  0  0  0  0
M  END
$$$$
