ZINC000000023458      none
 OpenBabel11202420153D

 34 34  0  0  1  0  0  0  0  0999 V2000
   31.8776   36.2051   66.0901 C   0  0  0  0  0  0  0  0  0  0  0  0
   30.6356   35.4365   65.6343 C   0  0  0  0  0  0  0  0  0  0  0  0
   29.3907   36.0533   66.2750 C   0  0  0  0  0  0  0  0  0  0  0  0
   30.5176   35.5154   64.1110 C   0  0  1  0  0  0  0  0  0  0  0  0
   29.6328   34.9679   63.7861 H   0  0  0  0  0  0  0  0  0  0  0  0
   30.4016   36.9173   63.7020 N   0  0  0  0  0  0  0  0  0  0  0  0
   29.5555   37.3139   62.3348 S   0  0  0  0  0  0  0  0  0  0  0  0
   28.6414   36.2504   62.1061 O   0  0  0  0  0  0  0  0  0  0  0  0
   29.1503   38.6668   62.4921 O   0  0  0  0  0  0  0  0  0  0  0  0
   30.6946   37.2887   60.9908 C   0  0  0  0  0  0  0  0  0  0  0  0
   31.3809   38.4376   60.6448 C   0  0  0  0  0  0  0  0  0  0  0  0
   32.2782   38.4166   59.5934 C   0  0  0  0  0  0  0  0  0  0  0  0
   32.4813   37.2492   58.8813 C   0  0  0  0  0  0  0  0  0  0  0  0
   31.7911   36.1016   59.2240 C   0  0  0  0  0  0  0  0  0  0  0  0
   30.8977   36.1213   60.2787 C   0  0  0  0  0  0  0  0  0  0  0  0
   31.7440   34.9080   63.4800 C   0  0  0  0  0  0  0  0  0  0  0  0
   32.8396   35.3729   63.7134 O   0  0  0  0  0  0  0  0  0  0  0  0
   31.6232   33.8481   62.6561 N   0  0  0  0  0  0  0  0  0  0  0  0
   32.7754   33.2774   62.0631 O   0  0  0  0  0  0  0  0  0  0  0  0
   31.9269   36.2030   67.1789 H   0  0  0  0  0  0  0  0  0  0  0  0
   32.7696   35.7272   65.6850 H   0  0  0  0  0  0  0  0  0  0  0  0
   31.8211   37.2326   65.7309 H   0  0  0  0  0  0  0  0  0  0  0  0
   30.7219   34.3933   65.9385 H   0  0  0  0  0  0  0  0  0  0  0  0
   28.5058   35.5058   65.9502 H   0  0  0  0  0  0  0  0  0  0  0  0
   29.4747   35.9972   67.3602 H   0  0  0  0  0  0  0  0  0  0  0  0
   29.3044   37.0964   65.9707 H   0  0  0  0  0  0  0  0  0  0  0  0
   30.8204   37.6135   64.2322 H   0  0  0  0  0  0  0  0  0  0  0  0
   31.2189   39.3508   61.1982 H   0  0  0  0  0  0  0  0  0  0  0  0
   32.8171   39.3132   59.3254 H   0  0  0  0  0  0  0  0  0  0  0  0
   33.1789   37.2339   58.0570 H   0  0  0  0  0  0  0  0  0  0  0  0
   31.9494   35.1897   58.6675 H   0  0  0  0  0  0  0  0  0  0  0  0
   30.3582   35.2248   60.5463 H   0  0  0  0  0  0  0  0  0  0  0  0
   30.7470   33.4764   62.4694 H   0  0  0  0  0  0  0  0  0  0  0  0
   32.5891   32.5223   61.4884 H   0  0  0  0  0  0  0  0  0  0  0  0
  1  2  1  0  0  0  0
  1 20  1  0  0  0  0
  1 21  1  0  0  0  0
  1 22  1  0  0  0  0
  2  3  1  0  0  0  0
  2  4  1  0  0  0  0
  2 23  1  0  0  0  0
  3 24  1  0  0  0  0
  3 25  1  0  0  0  0
  3 26  1  0  0  0  0
  4  5  1  6  0  0  0
  4  6  1  0  0  0  0
  4 16  1  0  0  0  0
  6  7  1  0  0  0  0
  6 27  1  0  0  0  0
  7  8  2  0  0  0  0
  7  9  2  0  0  0  0
  7 10  1  0  0  0  0
 10 15  2  0  0  0  0
 10 11  1  0  0  0  0
 11 12  2  0  0  0  0
 11 28  1  0  0  0  0
 12 13  1  0  0  0  0
 12 29  1  0  0  0  0
 13 14  2  0  0  0  0
 13 30  1  0  0  0  0
 14 15  1  0  0  0  0
 14 31  1  0  0  0  0
 15 32  1  0  0  0  0
 16 17  2  0  0  0  0
 16 18  1  0  0  0  0
 18 19  1  0  0  0  0
 18 33  1  0  0  0  0
 19 34  1  0  0  0  0
M  END
$$$$
