ZINC000000024819      none
 OpenBabel11202420153D

 28 30  0  0  0  0  0  0  0  0999 V2000
   28.8496   35.6524   63.2003 S   0  0  0  0  0  0  0  0  0  0  0  0
   29.9190   36.1098   61.9440 C   0  0  0  0  0  0  0  0  0  0  0  0
   30.2854   35.3248   60.9133 N   0  0  0  0  0  0  0  0  0  0  0  0
   29.9896   34.4137   60.7606 H   0  0  0  0  0  0  0  0  0  0  0  0
   31.1616   36.0436   60.1043 C   0  0  0  0  0  0  0  0  0  0  0  0
   31.8383   35.7427   58.9321 C   0  0  0  0  0  0  0  0  0  0  0  0
   32.6578   36.6892   58.3491 C   0  0  0  0  0  0  0  0  0  0  0  0
   32.8062   37.9372   58.9297 C   0  0  0  0  0  0  0  0  0  0  0  0
   32.1363   38.2461   60.0973 C   0  0  0  0  0  0  0  0  0  0  0  0
   31.3068   37.3042   60.6870 C   0  0  0  0  0  0  0  0  0  0  0  0
   30.5218   37.3089   61.8371 N   0  0  0  0  0  0  0  0  0  0  0  0
   30.3722   38.4298   62.7684 C   0  0  0  0  0  0  0  0  0  0  0  0
   31.4196   38.3296   63.8474 C   0  0  0  0  0  0  0  0  0  0  0  0
   32.3201   37.2810   63.8302 C   0  0  0  0  0  0  0  0  0  0  0  0
   33.2798   37.1984   64.8270 C   0  0  0  0  0  0  0  0  0  0  0  0
   33.2981   38.1779   65.8085 C   0  0  0  0  0  0  0  0  0  0  0  0
   32.3620   39.1935   65.7637 C   0  0  0  0  0  0  0  0  0  0  0  0
   31.4667   39.2436   64.7967 N   0  0  0  0  0  0  0  0  0  0  0  0
   31.7245   34.7705   58.4757 H   0  0  0  0  0  0  0  0  0  0  0  0
   33.1850   36.4551   57.4360 H   0  0  0  0  0  0  0  0  0  0  0  0
   33.4488   38.6722   58.4679 H   0  0  0  0  0  0  0  0  0  0  0  0
   32.2546   39.2206   60.5476 H   0  0  0  0  0  0  0  0  0  0  0  0
   29.3808   38.3970   63.2204 H   0  0  0  0  0  0  0  0  0  0  0  0
   30.4948   39.3691   62.2293 H   0  0  0  0  0  0  0  0  0  0  0  0
   32.2762   36.5353   63.0501 H   0  0  0  0  0  0  0  0  0  0  0  0
   33.9964   36.3905   64.8389 H   0  0  0  0  0  0  0  0  0  0  0  0
   34.0318   38.1451   66.6003 H   0  0  0  0  0  0  0  0  0  0  0  0
   32.3666   39.9576   66.5271 H   0  0  0  0  0  0  0  0  0  0  0  0
  1  2  2  0  0  0  0
  2 11  1  0  0  0  0
  2  3  1  0  0  0  0
  3  4  1  0  0  0  0
  3  5  1  0  0  0  0
  5 10  2  0  0  0  0
  5  6  1  0  0  0  0
  6  7  2  0  0  0  0
  6 19  1  0  0  0  0
  7  8  1  0  0  0  0
  7 20  1  0  0  0  0
  8  9  2  0  0  0  0
  8 21  1  0  0  0  0
  9 10  1  0  0  0  0
  9 22  1  0  0  0  0
 10 11  1  0  0  0  0
 11 12  1  0  0  0  0
 12 13  1  0  0  0  0
 12 23  1  0  0  0  0
 12 24  1  0  0  0  0
 13 18  2  0  0  0  0
 13 14  1  0  0  0  0
 14 15  2  0  0  0  0
 14 25  1  0  0  0  0
 15 16  1  0  0  0  0
 15 26  1  0  0  0  0
 16 17  2  0  0  0  0
 16 27  1  0  0  0  0
 17 18  1  0  0  0  0
 17 28  1  0  0  0  0
M  END
$$$$
