ZINC000000047442      none
 OpenBabel11202420153D

 30 33  0  0  0  0  0  0  0  0999 V2000
   30.8613   33.7971   63.3460 C   0  0  0  0  0  0  0  0  0  0  0  0
   31.0759   35.1639   63.3289 C   0  0  0  0  0  0  0  0  0  0  0  0
   31.5393   35.7781   62.1839 C   0  0  0  0  0  0  0  0  0  0  0  0
   31.7911   35.0175   61.0405 C   0  0  0  0  0  0  0  0  0  0  0  0
   32.2869   35.6686   59.8103 C   0  0  0  0  0  0  0  0  0  0  0  0
   32.5462   35.0600   58.7017 N   0  0  0  0  0  0  0  0  0  0  0  0
   32.9938   35.7897   57.6754 C   0  0  0  0  0  0  0  0  0  0  0  0
   33.4973   35.5341   55.9930 S   0  0  0  0  0  0  0  0  0  0  0  0
   33.8157   37.2529   55.8186 C   0  0  0  0  0  0  0  0  0  0  0  0
   34.3121   37.9040   54.5886 C   0  0  0  0  0  0  0  0  0  0  0  0
   34.5247   39.2836   54.5623 C   0  0  0  0  0  0  0  0  0  0  0  0
   34.9931   39.8843   53.4122 C   0  0  0  0  0  0  0  0  0  0  0  0
   35.2419   39.1243   52.2831 C   0  0  0  0  0  0  0  0  0  0  0  0
   35.0279   37.7574   52.3006 C   0  0  0  0  0  0  0  0  0  0  0  0
   34.5650   37.1432   53.4457 C   0  0  0  0  0  0  0  0  0  0  0  0
   33.5522   37.8622   56.9259 N   0  0  0  0  0  0  0  0  0  0  0  0
   33.1094   37.1317   57.9537 C   0  0  0  0  0  0  0  0  0  0  0  0
   32.6060   37.3874   59.6362 S   0  0  0  0  0  0  0  0  0  0  0  0
   31.5668   33.6396   61.0630 C   0  0  0  0  0  0  0  0  0  0  0  0
   31.1089   33.0373   62.2165 C   0  0  0  0  0  0  0  0  0  0  0  0
   30.4992   33.3210   64.2454 H   0  0  0  0  0  0  0  0  0  0  0  0
   30.8808   35.7512   64.2139 H   0  0  0  0  0  0  0  0  0  0  0  0
   31.7070   36.8449   62.1719 H   0  0  0  0  0  0  0  0  0  0  0  0
   34.3270   39.8785   55.4418 H   0  0  0  0  0  0  0  0  0  0  0  0
   35.1622   40.9508   53.3919 H   0  0  0  0  0  0  0  0  0  0  0  0
   35.6050   39.6002   51.3842 H   0  0  0  0  0  0  0  0  0  0  0  0
   35.2241   37.1700   51.4157 H   0  0  0  0  0  0  0  0  0  0  0  0
   34.3991   36.0761   53.4582 H   0  0  0  0  0  0  0  0  0  0  0  0
   31.7558   33.0460   60.1808 H   0  0  0  0  0  0  0  0  0  0  0  0
   30.9392   31.9709   62.2366 H   0  0  0  0  0  0  0  0  0  0  0  0
  1 20  2  0  0  0  0
  1  2  1  0  0  0  0
  1 21  1  0  0  0  0
  2  3  2  0  0  0  0
  2 22  1  0  0  0  0
  3  4  1  0  0  0  0
  3 23  1  0  0  0  0
  4  5  1  0  0  0  0
  4 19  2  0  0  0  0
  5 18  1  0  0  0  0
  5  6  2  0  0  0  0
  6  7  1  0  0  0  0
  7 17  2  0  0  0  0
  7  8  1  0  0  0  0
  8  9  1  0  0  0  0
  9 10  1  0  0  0  0
  9 16  2  0  0  0  0
 10 15  2  0  0  0  0
 10 11  1  0  0  0  0
 11 12  2  0  0  0  0
 11 24  1  0  0  0  0
 12 13  1  0  0  0  0
 12 25  1  0  0  0  0
 13 14  2  0  0  0  0
 13 26  1  0  0  0  0
 14 15  1  0  0  0  0
 14 27  1  0  0  0  0
 15 28  1  0  0  0  0
 16 17  1  0  0  0  0
 17 18  1  0  0  0  0
 19 20  1  0  0  0  0
 19 29  1  0  0  0  0
 20 30  1  0  0  0  0
M  END
$$$$
