ZINC000000024113      none
 OpenBabel11202420153D

 31 32  0  0  0  0  0  0  0  0999 V2000
   35.5397   41.0969   52.5885 C   0  0  0  0  0  0  0  0  0  0  0  0
   35.0322   40.7482   53.8779 O   0  0  0  0  0  0  0  0  0  0  0  0
   34.7395   39.4376   54.0924 C   0  0  0  0  0  0  0  0  0  0  0  0
   34.9382   38.5084   53.0784 C   0  0  0  0  0  0  0  0  0  0  0  0
   34.6440   37.1758   53.2863 C   0  0  0  0  0  0  0  0  0  0  0  0
   34.1469   36.7551   54.5106 C   0  0  0  0  0  0  0  0  0  0  0  0
   33.8571   35.4447   54.7135 O   0  0  0  0  0  0  0  0  0  0  0  0
   33.9441   37.6866   55.5372 C   0  0  0  0  0  0  0  0  0  0  0  0
   33.4099   37.2487   56.8406 C   0  0  0  0  0  0  0  0  0  0  0  0
   33.6406   36.1258   57.2460 O   0  0  0  0  0  0  0  0  0  0  0  0
   32.6661   38.0933   57.5821 N   0  0  0  0  0  0  0  0  0  0  0  0
   32.1594   37.6780   58.8183 C   0  0  0  0  0  0  0  0  0  0  0  0
   31.9648   38.6025   59.8363 C   0  0  0  0  0  0  0  0  0  0  0  0
   31.4601   38.1905   61.0541 C   0  0  0  0  0  0  0  0  0  0  0  0
   31.1581   36.8565   61.2639 C   0  0  0  0  0  0  0  0  0  0  0  0
   30.5305   36.3410   62.7981 Cl  0  0  0  0  0  0  0  0  0  0  0  0
   31.3560   35.9324   60.2529 C   0  0  0  0  0  0  0  0  0  0  0  0
   31.8556   36.3398   59.0315 C   0  0  0  0  0  0  0  0  0  0  0  0
   34.2449   39.0335   55.3183 C   0  0  0  0  0  0  0  0  0  0  0  0
   36.4678   40.5557   52.4047 H   0  0  0  0  0  0  0  0  0  0  0  0
   34.8074   40.8319   51.8260 H   0  0  0  0  0  0  0  0  0  0  0  0
   35.7312   42.1694   52.5512 H   0  0  0  0  0  0  0  0  0  0  0  0
   35.3245   38.8305   52.1227 H   0  0  0  0  0  0  0  0  0  0  0  0
   34.8011   36.4594   52.4936 H   0  0  0  0  0  0  0  0  0  0  0  0
   34.0300   34.8804   53.9474 H   0  0  0  0  0  0  0  0  0  0  0  0
   32.4819   38.9891   57.2587 H   0  0  0  0  0  0  0  0  0  0  0  0
   32.2041   39.6431   59.6744 H   0  0  0  0  0  0  0  0  0  0  0  0
   31.3046   38.9097   61.8448 H   0  0  0  0  0  0  0  0  0  0  0  0
   31.1198   34.8917   60.4193 H   0  0  0  0  0  0  0  0  0  0  0  0
   32.0102   35.6182   58.2429 H   0  0  0  0  0  0  0  0  0  0  0  0
   34.0909   39.7572   56.1050 H   0  0  0  0  0  0  0  0  0  0  0  0
  1  2  1  0  0  0  0
  1 20  1  0  0  0  0
  1 21  1  0  0  0  0
  1 22  1  0  0  0  0
  2  3  1  0  0  0  0
  3 19  2  0  0  0  0
  3  4  1  0  0  0  0
  4  5  2  0  0  0  0
  4 23  1  0  0  0  0
  5  6  1  0  0  0  0
  5 24  1  0  0  0  0
  6  7  1  0  0  0  0
  6  8  2  0  0  0  0
  7 25  1  0  0  0  0
  8  9  1  0  0  0  0
  8 19  1  0  0  0  0
  9 10  2  0  0  0  0
  9 11  1  0  0  0  0
 11 12  1  0  0  0  0
 11 26  1  0  0  0  0
 12 18  2  0  0  0  0
 12 13  1  0  0  0  0
 13 14  2  0  0  0  0
 13 27  1  0  0  0  0
 14 15  1  0  0  0  0
 14 28  1  0  0  0  0
 15 16  1  0  0  0  0
 15 17  2  0  0  0  0
 17 18  1  0  0  0  0
 17 29  1  0  0  0  0
 18 30  1  0  0  0  0
 19 31  1  0  0  0  0
M  END
$$$$
