ZINC000000034868      none
 OpenBabel11202420153D

 46 48  0  0  1  0  0  0  0  0999 V2000
   31.1164   37.9225   67.7708 C   0  0  0  0  0  0  0  0  0  0  0  0
   29.7253   37.9371   67.1917 C   0  0  0  0  0  0  0  0  0  0  0  0
   28.7641   37.7872   67.9178 O   0  0  0  0  0  0  0  0  0  0  0  0
   29.5393   38.1257   65.8017 C   0  0  0  0  0  0  0  0  0  0  0  0
   28.8486   39.1295   65.2068 C   0  0  0  0  0  0  0  0  0  0  0  0
   28.2122   40.1327   65.8516 O   0  0  0  0  0  0  0  0  0  0  0  0
   28.8973   38.9476   63.7392 C   0  0  0  0  0  0  0  0  0  0  0  0
   28.3690   39.6811   62.9278 O   0  0  0  0  0  0  0  0  0  0  0  0
   29.6162   37.8515   63.4363 N   0  0  0  0  0  0  0  0  0  0  0  0
   29.8907   37.3465   62.0889 C   0  0  0  0  0  0  0  0  0  0  0  0
   31.1844   37.9719   61.5636 C   0  0  0  0  0  0  0  0  0  0  0  0
   31.4597   37.4656   60.2124 N   0  0  0  0  0  0  0  0  0  0  0  0
   31.9891   36.0950   60.2612 C   0  0  0  0  0  0  0  0  0  0  0  0
   32.2051   35.5860   58.8335 C   0  0  0  0  0  0  0  0  0  0  0  0
   33.0807   36.4803   58.1413 O   0  0  0  0  0  0  0  0  0  0  0  0
   32.5957   37.8240   58.0744 C   0  0  0  0  0  0  0  0  0  0  0  0
   32.3837   38.3557   59.4944 C   0  0  0  0  0  0  0  0  0  0  0  0
   30.0717   37.2473   64.6937 C   0  0  2  0  0  0  0  0  0  0  0  0
   31.1610   37.2238   64.7250 H   0  0  0  0  0  0  0  0  0  0  0  0
   29.5188   35.8519   64.8281 C   0  0  0  0  0  0  0  0  0  0  0  0
   30.1997   34.9073   65.5730 C   0  0  0  0  0  0  0  0  0  0  0  0
   29.6905   33.6285   65.6995 C   0  0  0  0  0  0  0  0  0  0  0  0
   28.5045   33.2918   65.0742 C   0  0  0  0  0  0  0  0  0  0  0  0
   27.8262   34.2349   64.3250 C   0  0  0  0  0  0  0  0  0  0  0  0
   28.3335   35.5148   64.2018 C   0  0  0  0  0  0  0  0  0  0  0  0
   31.4394   38.9449   67.9664 H   0  0  0  0  0  0  0  0  0  0  0  0
   31.1162   37.3569   68.7027 H   0  0  0  0  0  0  0  0  0  0  0  0
   31.8001   37.4548   67.0622 H   0  0  0  0  0  0  0  0  0  0  0  0
   28.7927   40.6788   66.3994 H   0  0  0  0  0  0  0  0  0  0  0  0
   29.9986   36.2623   62.1221 H   0  0  0  0  0  0  0  0  0  0  0  0
   29.0653   37.6094   61.4272 H   0  0  0  0  0  0  0  0  0  0  0  0
   31.0765   39.0561   61.5304 H   0  0  0  0  0  0  0  0  0  0  0  0
   32.0098   37.7091   62.2254 H   0  0  0  0  0  0  0  0  0  0  0  0
   32.9385   36.0902   60.7968 H   0  0  0  0  0  0  0  0  0  0  0  0
   31.2777   35.4481   60.7745 H   0  0  0  0  0  0  0  0  0  0  0  0
   31.2476   35.5399   58.3148 H   0  0  0  0  0  0  0  0  0  0  0  0
   32.6509   34.5919   58.8650 H   0  0  0  0  0  0  0  0  0  0  0  0
   31.6495   37.8430   57.5336 H   0  0  0  0  0  0  0  0  0  0  0  0
   33.3234   38.4490   57.5567 H   0  0  0  0  0  0  0  0  0  0  0  0
   31.9602   39.3589   59.4480 H   0  0  0  0  0  0  0  0  0  0  0  0
   33.3392   38.3871   60.0177 H   0  0  0  0  0  0  0  0  0  0  0  0
   31.1282   35.1694   66.0585 H   0  0  0  0  0  0  0  0  0  0  0  0
   30.2206   32.8915   66.2844 H   0  0  0  0  0  0  0  0  0  0  0  0
   28.1080   32.2918   65.1708 H   0  0  0  0  0  0  0  0  0  0  0  0
   26.8997   33.9719   63.8363 H   0  0  0  0  0  0  0  0  0  0  0  0
   27.8035   36.2517   63.6164 H   0  0  0  0  0  0  0  0  0  0  0  0
  1  2  1  0  0  0  0
  1 26  1  0  0  0  0
  1 27  1  0  0  0  0
  1 28  1  0  0  0  0
  2  3  2  0  0  0  0
  2  4  1  0  0  0  0
  4 18  1  0  0  0  0
  4  5  2  0  0  0  0
  5  6  1  0  0  0  0
  5  7  1  0  0  0  0
  6 29  1  0  0  0  0
  7  8  2  0  0  0  0
  7  9  1  0  0  0  0
  9 10  1  0  0  0  0
  9 18  1  0  0  0  0
 10 11  1  0  0  0  0
 10 30  1  0  0  0  0
 10 31  1  0  0  0  0
 11 12  1  0  0  0  0
 11 32  1  0  0  0  0
 11 33  1  0  0  0  0
 12 17  1  0  0  0  0
 12 13  1  0  0  0  0
 13 14  1  0  0  0  0
 13 34  1  0  0  0  0
 13 35  1  0  0  0  0
 14 15  1  0  0  0  0
 14 36  1  0  0  0  0
 14 37  1  0  0  0  0
 15 16  1  0  0  0  0
 16 17  1  0  0  0  0
 16 38  1  0  0  0  0
 16 39  1  0  0  0  0
 17 40  1  0  0  0  0
 17 41  1  0  0  0  0
 18 19  1  1  0  0  0
 18 20  1  0  0  0  0
 20 25  2  0  0  0  0
 20 21  1  0  0  0  0
 21 22  2  0  0  0  0
 21 42  1  0  0  0  0
 22 23  1  0  0  0  0
 22 43  1  0  0  0  0
 23 24  2  0  0  0  0
 23 44  1  0  0  0  0
 24 25  1  0  0  0  0
 24 45  1  0  0  0  0
 25 46  1  0  0  0  0
M  END
$$$$
