ZINC000000014901      none
 OpenBabel11202420153D

 28 28  0  0  0  0  0  0  0  0999 V2000
   31.0867   38.2197   67.5603 C   0  0  0  0  0  0  0  0  0  0  0  0
   31.1930   38.4887   66.0813 C   0  0  0  0  0  0  0  0  0  0  0  0
   31.0890   39.6226   65.6619 O   0  0  0  0  0  0  0  0  0  0  0  0
   31.4218   37.3815   65.1500 C   0  0  0  0  0  0  0  0  0  0  0  0
   30.3453   36.7078   64.5974 C   0  0  0  0  0  0  0  0  0  0  0  0
   30.5670   35.7037   63.5549 C   0  0  0  0  0  0  0  0  0  0  0  0
   30.7756   34.3608   63.9015 C   0  0  0  0  0  0  0  0  0  0  0  0
   30.9842   33.4236   62.9138 C   0  0  0  0  0  0  0  0  0  0  0  0
   30.9880   33.8037   61.5819 C   0  0  0  0  0  0  0  0  0  0  0  0
   30.7820   35.1269   61.2300 C   0  0  0  0  0  0  0  0  0  0  0  0
   30.5721   36.0788   62.2039 C   0  0  0  0  0  0  0  0  0  0  0  0
   30.3587   37.4938   61.8254 N   0  0  0  0  0  0  0  0  0  0  0  0
   30.1782   38.3344   62.6880 O   0  0  0  0  0  0  0  0  0  0  0  0
   30.3635   37.8175   60.6511 O   0  0  0  0  0  0  0  0  0  0  0  0
   32.7891   36.9866   64.8034 C   0  0  0  0  0  0  0  0  0  0  0  0
   33.9034   37.1749   65.8003 C   0  0  0  0  0  0  0  0  0  0  0  0
   33.0245   36.5080   63.7135 O   0  0  0  0  0  0  0  0  0  0  0  0
   32.0423   37.8502   67.9321 H   0  0  0  0  0  0  0  0  0  0  0  0
   30.8269   39.1421   68.0796 H   0  0  0  0  0  0  0  0  0  0  0  0
   30.3138   37.4721   67.7390 H   0  0  0  0  0  0  0  0  0  0  0  0
   29.3424   36.9231   64.9354 H   0  0  0  0  0  0  0  0  0  0  0  0
   30.7734   34.0627   64.9395 H   0  0  0  0  0  0  0  0  0  0  0  0
   31.1451   32.3890   63.1787 H   0  0  0  0  0  0  0  0  0  0  0  0
   31.1522   33.0632   60.8130 H   0  0  0  0  0  0  0  0  0  0  0  0
   30.7862   35.4139   60.1888 H   0  0  0  0  0  0  0  0  0  0  0  0
   34.0565   36.2482   66.3535 H   0  0  0  0  0  0  0  0  0  0  0  0
   34.8207   37.4397   65.2743 H   0  0  0  0  0  0  0  0  0  0  0  0
   33.6392   37.9729   66.4943 H   0  0  0  0  0  0  0  0  0  0  0  0
  1  2  1  0  0  0  0
  1 18  1  0  0  0  0
  1 19  1  0  0  0  0
  1 20  1  0  0  0  0
  2  3  2  0  0  0  0
  2  4  1  0  0  0  0
  4  5  2  0  0  0  0
  4 15  1  0  0  0  0
  5  6  1  0  0  0  0
  5 21  1  0  0  0  0
  6 11  2  0  0  0  0
  6  7  1  0  0  0  0
  7  8  2  0  0  0  0
  7 22  1  0  0  0  0
  8  9  1  0  0  0  0
  8 23  1  0  0  0  0
  9 10  2  0  0  0  0
  9 24  1  0  0  0  0
 10 11  1  0  0  0  0
 10 25  1  0  0  0  0
 11 12  1  0  0  0  0
 12 13  2  0  0  0  0
 12 14  2  0  0  0  0
 15 16  1  0  0  0  0
 15 17  2  0  0  0  0
 16 26  1  0  0  0  0
 16 27  1  0  0  0  0
 16 28  1  0  0  0  0
M  END
$$$$
