ZINC000000025611      none
 OpenBabel11202420153D

 32 33  0  0  0  0  0  0  0  0999 V2000
   29.2206   37.8188   63.0084 C   0  0  0  0  0  0  0  0  0  0  0  0
   28.8051   36.7602   61.9850 C   0  0  0  0  0  0  0  0  0  0  0  0
   29.9736   36.0066   61.5666 O   0  0  0  0  0  0  0  0  0  0  0  0
   30.6515   36.4726   60.5058 C   0  0  0  0  0  0  0  0  0  0  0  0
   30.0717   37.0824   59.6387 O   0  0  0  0  0  0  0  0  0  0  0  0
   32.1357   36.2349   60.3964 C   0  0  0  0  0  0  0  0  0  0  0  0
   32.5145   36.1549   58.9835 N   0  0  0  0  0  0  0  0  0  0  0  0
   32.8802   37.2961   58.3024 C   0  0  0  0  0  0  0  0  0  0  0  0
   32.8951   38.4739   58.9091 N   0  0  0  0  0  0  0  0  0  0  0  0
   33.2457   39.5824   58.2630 C   0  0  0  0  0  0  0  0  0  0  0  0
   33.2408   40.7811   58.9530 N   0  0  0  0  0  0  0  0  0  0  0  0
   33.5975   39.5866   56.9914 N   0  0  0  0  0  0  0  0  0  0  0  0
   33.6153   38.4448   56.2881 C   0  0  0  0  0  0  0  0  0  0  0  0
   33.9838   38.4130   54.9362 C   0  0  0  0  0  0  0  0  0  0  0  0
   33.9843   37.2257   54.2663 C   0  0  0  0  0  0  0  0  0  0  0  0
   33.6243   36.0421   54.9042 C   0  0  0  0  0  0  0  0  0  0  0  0
   33.2555   36.0386   56.2176 C   0  0  0  0  0  0  0  0  0  0  0  0
   33.2494   37.2395   56.9353 C   0  0  0  0  0  0  0  0  0  0  0  0
   28.3434   38.3845   63.3226 H   0  0  0  0  0  0  0  0  0  0  0  0
   29.6676   37.3309   63.8747 H   0  0  0  0  0  0  0  0  0  0  0  0
   29.9467   38.4951   62.5575 H   0  0  0  0  0  0  0  0  0  0  0  0
   28.3580   37.2480   61.1187 H   0  0  0  0  0  0  0  0  0  0  0  0
   28.0791   36.0839   62.4360 H   0  0  0  0  0  0  0  0  0  0  0  0
   32.3916   35.2999   60.8946 H   0  0  0  0  0  0  0  0  0  0  0  0
   32.6712   37.0575   60.8703 H   0  0  0  0  0  0  0  0  0  0  0  0
   32.5080   35.2989   58.5273 H   0  0  0  0  0  0  0  0  0  0  0  0
   32.9853   40.8011   59.8886 H   0  0  0  0  0  0  0  0  0  0  0  0
   33.4929   41.6016   58.5015 H   0  0  0  0  0  0  0  0  0  0  0  0
   34.2658   39.3235   54.4284 H   0  0  0  0  0  0  0  0  0  0  0  0
   34.2682   37.2030   53.2244 H   0  0  0  0  0  0  0  0  0  0  0  0
   33.6326   35.1148   54.3509 H   0  0  0  0  0  0  0  0  0  0  0  0
   32.9744   35.1147   56.7011 H   0  0  0  0  0  0  0  0  0  0  0  0
  1  2  1  0  0  0  0
  1 19  1  0  0  0  0
  1 20  1  0  0  0  0
  1 21  1  0  0  0  0
  2  3  1  0  0  0  0
  2 22  1  0  0  0  0
  2 23  1  0  0  0  0
  3  4  1  0  0  0  0
  4  5  2  0  0  0  0
  4  6  1  0  0  0  0
  6  7  1  0  0  0  0
  6 24  1  0  0  0  0
  6 25  1  0  0  0  0
  7  8  1  0  0  0  0
  7 26  1  0  0  0  0
  8 18  2  0  0  0  0
  8  9  1  0  0  0  0
  9 10  2  0  0  0  0
 10 11  1  0  0  0  0
 10 12  1  0  0  0  0
 11 27  1  0  0  0  0
 11 28  1  0  0  0  0
 12 13  2  0  0  0  0
 13 18  1  0  0  0  0
 13 14  1  0  0  0  0
 14 15  2  0  0  0  0
 14 29  1  0  0  0  0
 15 16  1  0  0  0  0
 15 30  1  0  0  0  0
 16 17  2  0  0  0  0
 16 31  1  0  0  0  0
 17 18  1  0  0  0  0
 17 32  1  0  0  0  0
M  END
$$$$
