ZINC000000056676      none
 OpenBabel11202420153D

 33 34  0  0  0  0  0  0  0  0999 V2000
   33.3346   39.3914   56.8273 C   0  0  0  0  0  0  0  0  0  0  0  0
   33.3839   37.9962   56.5222 O   0  0  0  0  0  0  0  0  0  0  0  0
   33.0168   37.1367   57.5065 C   0  0  0  0  0  0  0  0  0  0  0  0
   32.6237   37.6318   58.7401 C   0  0  0  0  0  0  0  0  0  0  0  0
   32.2429   36.7622   59.7493 C   0  0  0  0  0  0  0  0  0  0  0  0
   32.2645   35.3774   59.5090 C   0  0  0  0  0  0  0  0  0  0  0  0
   32.6693   34.8819   58.2652 C   0  0  0  0  0  0  0  0  0  0  0  0
   33.0436   35.7608   57.2701 C   0  0  0  0  0  0  0  0  0  0  0  0
   33.4388   35.2866   56.0574 O   0  0  0  0  0  0  0  0  0  0  0  0
   33.4421   33.8681   55.8851 C   0  0  0  0  0  0  0  0  0  0  0  0
   31.8512   34.4605   60.5821 C   0  0  0  0  0  0  0  0  0  0  0  0
   31.6405   33.2845   60.3703 O   0  0  0  0  0  0  0  0  0  0  0  0
   31.7014   35.0615   61.9682 C   0  0  0  0  0  0  0  0  0  0  0  0
   31.0458   36.4396   61.7967 C   0  0  0  0  0  0  0  0  0  0  0  0
   30.8996   37.1091   63.1646 C   0  0  0  0  0  0  0  0  0  0  0  0
   29.6650   36.2724   61.1592 C   0  0  0  0  0  0  0  0  0  0  0  0
   31.8643   37.2507   60.9544 O   0  0  0  0  0  0  0  0  0  0  0  0
   33.6522   39.9653   55.9566 H   0  0  0  0  0  0  0  0  0  0  0  0
   33.9993   39.6039   57.6647 H   0  0  0  0  0  0  0  0  0  0  0  0
   32.3146   39.6693   57.0933 H   0  0  0  0  0  0  0  0  0  0  0  0
   32.6103   38.6978   58.9137 H   0  0  0  0  0  0  0  0  0  0  0  0
   32.6890   33.8172   58.0851 H   0  0  0  0  0  0  0  0  0  0  0  0
   34.1177   33.4155   56.6109 H   0  0  0  0  0  0  0  0  0  0  0  0
   32.4343   33.4814   56.0366 H   0  0  0  0  0  0  0  0  0  0  0  0
   33.7766   33.6254   54.8765 H   0  0  0  0  0  0  0  0  0  0  0  0
   32.6812   35.1716   62.4329 H   0  0  0  0  0  0  0  0  0  0  0  0
   31.0681   34.4232   62.5844 H   0  0  0  0  0  0  0  0  0  0  0  0
   30.4366   38.0883   63.0422 H   0  0  0  0  0  0  0  0  0  0  0  0
   30.2744   36.4894   63.8076 H   0  0  0  0  0  0  0  0  0  0  0  0
   31.8835   37.2268   63.6187 H   0  0  0  0  0  0  0  0  0  0  0  0
   29.7700   35.7943   60.1854 H   0  0  0  0  0  0  0  0  0  0  0  0
   29.0403   35.6530   61.8027 H   0  0  0  0  0  0  0  0  0  0  0  0
   29.2011   37.2509   61.0354 H   0  0  0  0  0  0  0  0  0  0  0  0
  1  2  1  0  0  0  0
  1 18  1  0  0  0  0
  1 19  1  0  0  0  0
  1 20  1  0  0  0  0
  2  3  1  0  0  0  0
  3  8  2  0  0  0  0
  3  4  1  0  0  0  0
  4  5  2  0  0  0  0
  4 21  1  0  0  0  0
  5 17  1  0  0  0  0
  5  6  1  0  0  0  0
  6  7  2  0  0  0  0
  6 11  1  0  0  0  0
  7  8  1  0  0  0  0
  7 22  1  0  0  0  0
  8  9  1  0  0  0  0
  9 10  1  0  0  0  0
 10 23  1  0  0  0  0
 10 24  1  0  0  0  0
 10 25  1  0  0  0  0
 11 12  2  0  0  0  0
 11 13  1  0  0  0  0
 13 14  1  0  0  0  0
 13 26  1  0  0  0  0
 13 27  1  0  0  0  0
 14 15  1  0  0  0  0
 14 16  1  0  0  0  0
 14 17  1  0  0  0  0
 15 28  1  0  0  0  0
 15 29  1  0  0  0  0
 15 30  1  0  0  0  0
 16 31  1  0  0  0  0
 16 32  1  0  0  0  0
 16 33  1  0  0  0  0
M  END
$$$$
