ZINC000000031535      none
 OpenBabel11202420163D

 34 35  0  0  0  0  0  0  0  0999 V2000
   33.9529   36.4351   54.2234 C   0  0  0  0  0  0  0  0  0  0  0  0
   33.4813   35.1511   54.9088 C   0  0  0  0  0  0  0  0  0  0  0  0
   34.6107   34.1191   54.8912 C   0  0  0  0  0  0  0  0  0  0  0  0
   32.2675   34.5917   54.1642 C   0  0  0  0  0  0  0  0  0  0  0  0
   33.0999   35.4541   56.3350 C   0  0  0  0  0  0  0  0  0  0  0  0
   32.6412   34.4409   57.1566 C   0  0  0  0  0  0  0  0  0  0  0  0
   32.2913   34.7153   58.4643 C   0  0  0  0  0  0  0  0  0  0  0  0
   32.4007   36.0100   58.9536 C   0  0  0  0  0  0  0  0  0  0  0  0
   32.0458   36.2918   60.2803 N   0  0  0  0  0  0  0  0  0  0  0  0
   31.5716   37.4827   60.6661 C   0  0  0  0  0  0  0  0  0  0  0  0
   31.3951   38.4372   59.9398 O   0  0  0  0  0  0  0  0  0  0  0  0
   31.2872   37.4478   62.1518 C   0  0  0  0  0  0  0  0  0  0  0  0
   31.6931   36.0181   62.5640 C   0  0  0  0  0  0  0  0  0  0  0  0
   32.1588   35.3938   61.2667 C   0  0  0  0  0  0  0  0  0  0  0  0
   32.5688   34.2599   61.1406 O   0  0  0  0  0  0  0  0  0  0  0  0
   32.8616   37.0251   58.1263 C   0  0  0  0  0  0  0  0  0  0  0  0
   33.2099   36.7445   56.8194 C   0  0  0  0  0  0  0  0  0  0  0  0
   34.8177   36.8337   54.7538 H   0  0  0  0  0  0  0  0  0  0  0  0
   34.2288   36.2159   53.1919 H   0  0  0  0  0  0  0  0  0  0  0  0
   33.1484   37.1704   54.2360 H   0  0  0  0  0  0  0  0  0  0  0  0
   34.2745   33.2044   55.3795 H   0  0  0  0  0  0  0  0  0  0  0  0
   34.8865   33.8999   53.8597 H   0  0  0  0  0  0  0  0  0  0  0  0
   35.4754   34.5175   55.4218 H   0  0  0  0  0  0  0  0  0  0  0  0
   31.4629   35.3270   54.1768 H   0  0  0  0  0  0  0  0  0  0  0  0
   32.5433   34.3726   53.1326 H   0  0  0  0  0  0  0  0  0  0  0  0
   31.9314   33.6770   54.6526 H   0  0  0  0  0  0  0  0  0  0  0  0
   32.5605   33.4331   56.7768 H   0  0  0  0  0  0  0  0  0  0  0  0
   31.9327   33.9238   59.1055 H   0  0  0  0  0  0  0  0  0  0  0  0
   30.2284   37.6173   62.3475 H   0  0  0  0  0  0  0  0  0  0  0  0
   31.8957   38.1852   62.6753 H   0  0  0  0  0  0  0  0  0  0  0  0
   30.8363   35.4764   62.9646 H   0  0  0  0  0  0  0  0  0  0  0  0
   32.5054   36.0442   63.2905 H   0  0  0  0  0  0  0  0  0  0  0  0
   32.9474   38.0333   58.5039 H   0  0  0  0  0  0  0  0  0  0  0  0
   33.5689   37.5337   56.1755 H   0  0  0  0  0  0  0  0  0  0  0  0
  1  2  1  0  0  0  0
  1 18  1  0  0  0  0
  1 19  1  0  0  0  0
  1 20  1  0  0  0  0
  2  3  1  0  0  0  0
  2  4  1  0  0  0  0
  2  5  1  0  0  0  0
  3 21  1  0  0  0  0
  3 22  1  0  0  0  0
  3 23  1  0  0  0  0
  4 24  1  0  0  0  0
  4 25  1  0  0  0  0
  4 26  1  0  0  0  0
  5 17  2  0  0  0  0
  5  6  1  0  0  0  0
  6  7  2  0  0  0  0
  6 27  1  0  0  0  0
  7  8  1  0  0  0  0
  7 28  1  0  0  0  0
  8  9  1  0  0  0  0
  8 16  2  0  0  0  0
  9 14  1  0  0  0  0
  9 10  1  0  0  0  0
 10 11  2  0  0  0  0
 10 12  1  0  0  0  0
 12 13  1  0  0  0  0
 12 29  1  0  0  0  0
 12 30  1  0  0  0  0
 13 14  1  0  0  0  0
 13 31  1  0  0  0  0
 13 32  1  0  0  0  0
 14 15  2  0  0  0  0
 16 17  1  0  0  0  0
 16 33  1  0  0  0  0
 17 34  1  0  0  0  0
M  END
$$$$
