ZINC000000030046      none
 OpenBabel11202420163D

 41 43  0  0  0  0  0  0  0  0999 V2000
   30.7313   38.0390   67.0324 C   0  0  0  0  0  0  0  0  0  0  0  0
   30.4917   38.8673   65.8480 N   0  0  0  0  0  0  0  0  0  0  0  0
   29.7897   40.1465   65.9786 C   0  0  0  0  0  0  0  0  0  0  0  0
   30.9305   38.4391   64.6000 C   0  0  0  0  0  0  0  0  0  0  0  0
   32.0643   37.6375   64.4998 C   0  0  0  0  0  0  0  0  0  0  0  0
   32.5011   37.2122   63.2661 C   0  0  0  0  0  0  0  0  0  0  0  0
   31.8050   37.5860   62.1126 C   0  0  0  0  0  0  0  0  0  0  0  0
   32.2708   37.1323   60.7888 C   0  0  0  0  0  0  0  0  0  0  0  0
   33.0637   37.8061   60.1593 O   0  0  0  0  0  0  0  0  0  0  0  0
   31.8176   35.9709   60.2766 N   0  0  0  0  0  0  0  0  0  0  0  0
   30.8603   35.1468   61.0271 C   0  0  0  0  0  0  0  0  0  0  0  0
   31.3273   33.6877   60.9404 C   0  0  0  0  0  0  0  0  0  0  0  0
   31.2850   33.2414   59.4791 C   0  0  0  0  0  0  0  0  0  0  0  0
   32.0180   34.2250   58.6057 C   0  0  0  0  0  0  0  0  0  0  0  0
   32.4661   33.8124   57.3618 C   0  0  0  0  0  0  0  0  0  0  0  0
   33.1392   34.6919   56.5365 C   0  0  0  0  0  0  0  0  0  0  0  0
   33.3699   35.9922   56.9474 C   0  0  0  0  0  0  0  0  0  0  0  0
   32.9276   36.4113   58.1860 C   0  0  0  0  0  0  0  0  0  0  0  0
   32.2514   35.5271   59.0192 C   0  0  0  0  0  0  0  0  0  0  0  0
   30.6699   38.3954   62.2163 C   0  0  0  0  0  0  0  0  0  0  0  0
   30.2354   38.8135   63.4533 C   0  0  0  0  0  0  0  0  0  0  0  0
   31.6882   38.3106   67.4781 H   0  0  0  0  0  0  0  0  0  0  0  0
   29.9335   38.2020   67.7571 H   0  0  0  0  0  0  0  0  0  0  0  0
   30.7504   36.9883   66.7433 H   0  0  0  0  0  0  0  0  0  0  0  0
   28.8834   40.1270   65.3732 H   0  0  0  0  0  0  0  0  0  0  0  0
   29.5252   40.3110   67.0231 H   0  0  0  0  0  0  0  0  0  0  0  0
   30.4378   40.9532   65.6363 H   0  0  0  0  0  0  0  0  0  0  0  0
   32.6014   37.3488   65.3912 H   0  0  0  0  0  0  0  0  0  0  0  0
   33.3809   36.5906   63.1889 H   0  0  0  0  0  0  0  0  0  0  0  0
   29.8670   35.2431   60.5887 H   0  0  0  0  0  0  0  0  0  0  0  0
   30.8363   35.4654   62.0692 H   0  0  0  0  0  0  0  0  0  0  0  0
   32.3469   33.6077   61.3173 H   0  0  0  0  0  0  0  0  0  0  0  0
   30.6673   33.0571   61.5361 H   0  0  0  0  0  0  0  0  0  0  0  0
   31.7532   32.2613   59.3887 H   0  0  0  0  0  0  0  0  0  0  0  0
   30.2469   33.1750   59.1533 H   0  0  0  0  0  0  0  0  0  0  0  0
   32.2890   32.7980   57.0360 H   0  0  0  0  0  0  0  0  0  0  0  0
   33.4868   34.3633   55.5681 H   0  0  0  0  0  0  0  0  0  0  0  0
   33.8951   36.6789   56.3000 H   0  0  0  0  0  0  0  0  0  0  0  0
   33.1069   37.4264   58.5080 H   0  0  0  0  0  0  0  0  0  0  0  0
   30.1325   38.6895   61.3269 H   0  0  0  0  0  0  0  0  0  0  0  0
   29.3564   39.4357   63.5343 H   0  0  0  0  0  0  0  0  0  0  0  0
  1  2  1  0  0  0  0
  1 22  1  0  0  0  0
  1 23  1  0  0  0  0
  1 24  1  0  0  0  0
  2  3  1  0  0  0  0
  2  4  1  0  0  0  0
  3 25  1  0  0  0  0
  3 26  1  0  0  0  0
  3 27  1  0  0  0  0
  4 21  2  0  0  0  0
  4  5  1  0  0  0  0
  5  6  2  0  0  0  0
  5 28  1  0  0  0  0
  6  7  1  0  0  0  0
  6 29  1  0  0  0  0
  7  8  1  0  0  0  0
  7 20  2  0  0  0  0
  8  9  2  0  0  0  0
  8 10  1  0  0  0  0
 10 19  1  0  0  0  0
 10 11  1  0  0  0  0
 11 12  1  0  0  0  0
 11 30  1  0  0  0  0
 11 31  1  0  0  0  0
 12 13  1  0  0  0  0
 12 32  1  0  0  0  0
 12 33  1  0  0  0  0
 13 14  1  0  0  0  0
 13 34  1  0  0  0  0
 13 35  1  0  0  0  0
 14 19  2  0  0  0  0
 14 15  1  0  0  0  0
 15 16  2  0  0  0  0
 15 36  1  0  0  0  0
 16 17  1  0  0  0  0
 16 37  1  0  0  0  0
 17 18  2  0  0  0  0
 17 38  1  0  0  0  0
 18 19  1  0  0  0  0
 18 39  1  0  0  0  0
 20 21  1  0  0  0  0
 20 40  1  0  0  0  0
 21 41  1  0  0  0  0
M  END
$$$$
