ZINC000000040346      none
 OpenBabel11202420153D

 27 28  0  0  0  0  0  0  0  0999 V2000
   33.2667   35.9191   55.6494 C   0  0  0  0  0  0  0  0  0  0  0  0
   32.9171   36.3594   57.0476 C   0  0  0  0  0  0  0  0  0  0  0  0
   33.1538   37.6655   57.4379 C   0  0  0  0  0  0  0  0  0  0  0  0
   32.8361   38.0751   58.7163 C   0  0  0  0  0  0  0  0  0  0  0  0
   32.2742   37.1685   59.6169 C   0  0  0  0  0  0  0  0  0  0  0  0
   31.9317   37.6000   60.9883 C   0  0  0  0  0  0  0  0  0  0  0  0
   32.7556   37.5094   61.8775 O   0  0  0  0  0  0  0  0  0  0  0  0
   30.7060   38.0940   61.2530 N   0  0  0  0  0  0  0  0  0  0  0  0
   30.3840   38.4997   62.5427 C   0  0  0  0  0  0  0  0  0  0  0  0
   29.2429   38.9916   62.9309 N   0  0  0  0  0  0  0  0  0  0  0  0
   29.1254   39.3087   64.1458 N   0  0  0  0  0  0  0  0  0  0  0  0
   30.1441   39.1242   64.9218 C   0  0  0  0  0  0  0  0  0  0  0  0
   30.2057   39.4365   66.3948 C   0  0  0  0  0  0  0  0  0  0  0  0
   31.4491   38.4417   63.9490 S   0  0  0  0  0  0  0  0  0  0  0  0
   32.0424   35.8508   59.2182 C   0  0  0  0  0  0  0  0  0  0  0  0
   32.3604   35.4556   57.9352 C   0  0  0  0  0  0  0  0  0  0  0  0
   34.2912   35.5473   55.6310 H   0  0  0  0  0  0  0  0  0  0  0  0
   32.5869   35.1263   55.3374 H   0  0  0  0  0  0  0  0  0  0  0  0
   33.1750   36.7653   54.9685 H   0  0  0  0  0  0  0  0  0  0  0  0
   33.5885   38.3659   56.7402 H   0  0  0  0  0  0  0  0  0  0  0  0
   33.0214   39.0950   59.0197 H   0  0  0  0  0  0  0  0  0  0  0  0
   30.0485   38.1664   60.5435 H   0  0  0  0  0  0  0  0  0  0  0  0
   29.8857   38.5643   66.9649 H   0  0  0  0  0  0  0  0  0  0  0  0
   31.2285   39.6945   66.6691 H   0  0  0  0  0  0  0  0  0  0  0  0
   29.5473   40.2766   66.6159 H   0  0  0  0  0  0  0  0  0  0  0  0
   31.6117   35.1435   59.9113 H   0  0  0  0  0  0  0  0  0  0  0  0
   32.1782   34.4375   57.6243 H   0  0  0  0  0  0  0  0  0  0  0  0
  1  2  1  0  0  0  0
  1 17  1  0  0  0  0
  1 18  1  0  0  0  0
  1 19  1  0  0  0  0
  2 16  2  0  0  0  0
  2  3  1  0  0  0  0
  3  4  2  0  0  0  0
  3 20  1  0  0  0  0
  4  5  1  0  0  0  0
  4 21  1  0  0  0  0
  5  6  1  0  0  0  0
  5 15  2  0  0  0  0
  6  7  2  0  0  0  0
  6  8  1  0  0  0  0
  8  9  1  0  0  0  0
  8 22  1  0  0  0  0
  9 14  1  0  0  0  0
  9 10  2  0  0  0  0
 10 11  1  0  0  0  0
 11 12  2  0  0  0  0
 12 13  1  0  0  0  0
 12 14  1  0  0  0  0
 13 23  1  0  0  0  0
 13 24  1  0  0  0  0
 13 25  1  0  0  0  0
 15 16  1  0  0  0  0
 15 26  1  0  0  0  0
 16 27  1  0  0  0  0
M  END
$$$$
