ZINC000000038712      none
 OpenBabel11202420153D

 37 38  0  0  0  0  0  0  0  0999 V2000
   33.0650   35.1544   55.1317 C   0  0  0  0  0  0  0  0  0  0  0  0
   32.6579   35.3705   56.4844 O   0  0  0  0  0  0  0  0  0  0  0  0
   32.8025   36.6289   56.9791 C   0  0  0  0  0  0  0  0  0  0  0  0
   33.3304   37.6316   56.1790 C   0  0  0  0  0  0  0  0  0  0  0  0
   33.4796   38.9118   56.6789 C   0  0  0  0  0  0  0  0  0  0  0  0
   33.1022   39.1967   57.9808 C   0  0  0  0  0  0  0  0  0  0  0  0
   33.2502   40.4568   58.4722 O   0  0  0  0  0  0  0  0  0  0  0  0
   34.4917   40.7627   59.1101 C   0  0  0  0  0  0  0  0  0  0  0  0
   32.5713   38.1922   58.7866 C   0  0  0  0  0  0  0  0  0  0  0  0
   32.1894   38.4774   60.1033 N   0  0  0  0  0  0  0  0  0  0  0  0
   32.2569   37.5179   61.0474 C   0  0  0  0  0  0  0  0  0  0  0  0
   32.6494   36.4049   60.7560 O   0  0  0  0  0  0  0  0  0  0  0  0
   31.8535   37.8190   62.4373 C   0  0  0  0  0  0  0  0  0  0  0  0
   30.9168   38.8216   62.6938 C   0  0  0  0  0  0  0  0  0  0  0  0
   30.5450   39.0979   63.9933 C   0  0  0  0  0  0  0  0  0  0  0  0
   31.1026   38.3875   65.0415 C   0  0  0  0  0  0  0  0  0  0  0  0
   30.6968   38.6993   66.4589 C   0  0  0  0  0  0  0  0  0  0  0  0
   32.0274   37.3885   64.7937 C   0  0  0  0  0  0  0  0  0  0  0  0
   32.4080   37.1021   63.4991 C   0  0  0  0  0  0  0  0  0  0  0  0
   32.4271   36.9072   58.2841 C   0  0  0  0  0  0  0  0  0  0  0  0
   34.1244   35.3896   55.0292 H   0  0  0  0  0  0  0  0  0  0  0  0
   32.8967   34.1114   54.8638 H   0  0  0  0  0  0  0  0  0  0  0  0
   32.4843   35.7976   54.4705 H   0  0  0  0  0  0  0  0  0  0  0  0
   33.6257   37.4117   55.1637 H   0  0  0  0  0  0  0  0  0  0  0  0
   33.8912   39.6904   56.0539 H   0  0  0  0  0  0  0  0  0  0  0  0
   34.4780   41.7964   59.4552 H   0  0  0  0  0  0  0  0  0  0  0  0
   34.6364   40.0974   59.9614 H   0  0  0  0  0  0  0  0  0  0  0  0
   35.3079   40.6273   58.4005 H   0  0  0  0  0  0  0  0  0  0  0  0
   31.8762   39.3655   60.3360 H   0  0  0  0  0  0  0  0  0  0  0  0
   30.4844   39.3802   61.8768 H   0  0  0  0  0  0  0  0  0  0  0  0
   29.8204   39.8733   64.1931 H   0  0  0  0  0  0  0  0  0  0  0  0
   29.8409   38.0836   66.7356 H   0  0  0  0  0  0  0  0  0  0  0  0
   31.5290   38.4874   67.1301 H   0  0  0  0  0  0  0  0  0  0  0  0
   30.4268   39.7524   66.5362 H   0  0  0  0  0  0  0  0  0  0  0  0
   32.4558   36.8349   65.6162 H   0  0  0  0  0  0  0  0  0  0  0  0
   33.1329   36.3250   63.3073 H   0  0  0  0  0  0  0  0  0  0  0  0
   32.0196   36.1255   58.9079 H   0  0  0  0  0  0  0  0  0  0  0  0
  1  2  1  0  0  0  0
  1 21  1  0  0  0  0
  1 22  1  0  0  0  0
  1 23  1  0  0  0  0
  2  3  1  0  0  0  0
  3 20  2  0  0  0  0
  3  4  1  0  0  0  0
  4  5  2  0  0  0  0
  4 24  1  0  0  0  0
  5  6  1  0  0  0  0
  5 25  1  0  0  0  0
  6  7  1  0  0  0  0
  6  9  2  0  0  0  0
  7  8  1  0  0  0  0
  8 26  1  0  0  0  0
  8 27  1  0  0  0  0
  8 28  1  0  0  0  0
  9 10  1  0  0  0  0
  9 20  1  0  0  0  0
 10 11  1  0  0  0  0
 10 29  1  0  0  0  0
 11 12  2  0  0  0  0
 11 13  1  0  0  0  0
 13 19  2  0  0  0  0
 13 14  1  0  0  0  0
 14 15  2  0  0  0  0
 14 30  1  0  0  0  0
 15 16  1  0  0  0  0
 15 31  1  0  0  0  0
 16 17  1  0  0  0  0
 16 18  2  0  0  0  0
 17 32  1  0  0  0  0
 17 33  1  0  0  0  0
 17 34  1  0  0  0  0
 18 19  1  0  0  0  0
 18 35  1  0  0  0  0
 19 36  1  0  0  0  0
 20 37  1  0  0  0  0
M  END
$$$$
