ZINC000000039702      none
 OpenBabel11202420153D

 21 21  0  0  0  0  0  0  0  0999 V2000
   31.2143   33.7370   59.1010 C   0  0  0  0  0  0  0  0  0  0  0  0
   31.7199   34.9049   58.3752 N   0  0  0  0  0  0  0  0  0  0  0  0
   32.2148   35.9582   59.0547 C   0  0  0  0  0  0  0  0  0  0  0  0
   32.2418   35.9393   60.2698 O   0  0  0  0  0  0  0  0  0  0  0  0
   32.7251   37.1369   58.3222 C   0  0  0  0  0  0  0  0  0  0  0  0
   33.2246   36.9939   57.0262 C   0  0  0  0  0  0  0  0  0  0  0  0
   33.6993   38.0954   56.3443 C   0  0  0  0  0  0  0  0  0  0  0  0
   33.6882   39.3420   56.9419 C   0  0  0  0  0  0  0  0  0  0  0  0
   33.1887   39.4960   58.2296 C   0  0  0  0  0  0  0  0  0  0  0  0
   33.1750   40.7587   58.8274 N   0  0  0  0  0  0  0  0  0  0  0  0
   32.7087   38.3951   58.9232 C   0  0  0  0  0  0  0  0  0  0  0  0
   32.0155   33.3088   59.7034 H   0  0  0  0  0  0  0  0  0  0  0  0
   30.3936   34.0403   59.7509 H   0  0  0  0  0  0  0  0  0  0  0  0
   30.8579   32.9928   58.3889 H   0  0  0  0  0  0  0  0  0  0  0  0
   31.6983   34.9200   57.4056 H   0  0  0  0  0  0  0  0  0  0  0  0
   33.2389   36.0210   56.5574 H   0  0  0  0  0  0  0  0  0  0  0  0
   34.0853   37.9825   55.3419 H   0  0  0  0  0  0  0  0  0  0  0  0
   34.0653   40.1998   56.4047 H   0  0  0  0  0  0  0  0  0  0  0  0
   32.8297   40.8654   59.7275 H   0  0  0  0  0  0  0  0  0  0  0  0
   33.5107   41.5287   58.3422 H   0  0  0  0  0  0  0  0  0  0  0  0
   32.3233   38.5120   59.9254 H   0  0  0  0  0  0  0  0  0  0  0  0
  1  2  1  0  0  0  0
  1 12  1  0  0  0  0
  1 13  1  0  0  0  0
  1 14  1  0  0  0  0
  2  3  1  0  0  0  0
  2 15  1  0  0  0  0
  3  4  2  0  0  0  0
  3  5  1  0  0  0  0
  5 11  2  0  0  0  0
  5  6  1  0  0  0  0
  6  7  2  0  0  0  0
  6 16  1  0  0  0  0
  7  8  1  0  0  0  0
  7 17  1  0  0  0  0
  8  9  2  0  0  0  0
  8 18  1  0  0  0  0
  9 10  1  0  0  0  0
  9 11  1  0  0  0  0
 10 19  1  0  0  0  0
 10 20  1  0  0  0  0
 11 21  1  0  0  0  0
M  END
$$$$
