ZINC000000037787      none
 OpenBabel11202420153D

 35 37  0  0  0  0  0  0  0  0999 V2000
   32.7971   33.4799   58.2754 O   0  0  0  0  0  0  0  0  0  0  0  0
   33.0672   34.4678   57.6235 C   0  0  0  0  0  0  0  0  0  0  0  0
   32.7377   35.7547   58.1175 C   0  0  0  0  0  0  0  0  0  0  0  0
   32.1135   36.0486   59.3111 C   0  0  0  0  0  0  0  0  0  0  0  0
   31.9708   37.3824   59.4303 N   0  0  0  0  0  0  0  0  0  0  0  0
   31.3483   38.0545   60.5735 C   0  0  0  0  0  0  0  0  0  0  0  0
   31.8713   37.4398   61.8733 C   0  0  0  0  0  0  0  0  0  0  0  0
   31.2641   38.0955   62.9883 O   0  0  0  0  0  0  0  0  0  0  0  0
   31.9916   38.1648   64.1349 C   0  0  0  0  0  0  0  0  0  0  0  0
   31.8182   39.2309   65.0043 C   0  0  0  0  0  0  0  0  0  0  0  0
   32.5584   39.2991   66.1691 C   0  0  0  0  0  0  0  0  0  0  0  0
   33.4725   38.3060   66.4688 C   0  0  0  0  0  0  0  0  0  0  0  0
   33.6486   37.2412   65.6048 C   0  0  0  0  0  0  0  0  0  0  0  0
   32.9101   37.1675   64.4375 C   0  0  0  0  0  0  0  0  0  0  0  0
   33.0819   36.1273   63.5927 F   0  0  0  0  0  0  0  0  0  0  0  0
   32.4860   38.0291   58.3252 C   0  0  0  0  0  0  0  0  0  0  0  0
   32.5878   39.3712   57.9721 C   0  0  0  0  0  0  0  0  0  0  0  0
   33.1734   39.7252   56.7762 C   0  0  0  0  0  0  0  0  0  0  0  0
   33.6693   38.7551   55.9175 C   0  0  0  0  0  0  0  0  0  0  0  0
   33.5822   37.4211   56.2519 C   0  0  0  0  0  0  0  0  0  0  0  0
   32.9933   37.0500   57.4572 C   0  0  0  0  0  0  0  0  0  0  0  0
   33.5585   34.3660   56.6672 H   0  0  0  0  0  0  0  0  0  0  0  0
   31.7881   35.3204   60.0392 H   0  0  0  0  0  0  0  0  0  0  0  0
   30.2666   37.9311   60.5227 H   0  0  0  0  0  0  0  0  0  0  0  0
   31.5944   39.1162   60.5489 H   0  0  0  0  0  0  0  0  0  0  0  0
   32.9531   37.5633   61.9241 H   0  0  0  0  0  0  0  0  0  0  0  0
   31.6252   36.3783   61.8979 H   0  0  0  0  0  0  0  0  0  0  0  0
   31.1015   40.0053   64.7735 H   0  0  0  0  0  0  0  0  0  0  0  0
   32.4232   40.1295   66.8462 H   0  0  0  0  0  0  0  0  0  0  0  0
   34.0502   38.3622   67.3796 H   0  0  0  0  0  0  0  0  0  0  0  0
   34.3630   36.4666   65.8413 H   0  0  0  0  0  0  0  0  0  0  0  0
   32.2047   40.1345   58.6331 H   0  0  0  0  0  0  0  0  0  0  0  0
   33.2468   40.7679   56.5047 H   0  0  0  0  0  0  0  0  0  0  0  0
   34.1252   39.0466   54.9828 H   0  0  0  0  0  0  0  0  0  0  0  0
   33.9691   36.6674   55.5821 H   0  0  0  0  0  0  0  0  0  0  0  0
  1  2  2  0  0  0  0
  2  3  1  0  0  0  0
  2 22  1  0  0  0  0
  3 21  1  0  0  0  0
  3  4  2  0  0  0  0
  4  5  1  0  0  0  0
  4 23  1  0  0  0  0
  5  6  1  0  0  0  0
  5 16  1  0  0  0  0
  6  7  1  0  0  0  0
  6 24  1  0  0  0  0
  6 25  1  0  0  0  0
  7  8  1  0  0  0  0
  7 26  1  0  0  0  0
  7 27  1  0  0  0  0
  8  9  1  0  0  0  0
  9 14  2  0  0  0  0
  9 10  1  0  0  0  0
 10 11  2  0  0  0  0
 10 28  1  0  0  0  0
 11 12  1  0  0  0  0
 11 29  1  0  0  0  0
 12 13  2  0  0  0  0
 12 30  1  0  0  0  0
 13 14  1  0  0  0  0
 13 31  1  0  0  0  0
 14 15  1  0  0  0  0
 16 21  2  0  0  0  0
 16 17  1  0  0  0  0
 17 18  2  0  0  0  0
 17 32  1  0  0  0  0
 18 19  1  0  0  0  0
 18 33  1  0  0  0  0
 19 20  2  0  0  0  0
 19 34  1  0  0  0  0
 20 21  1  0  0  0  0
 20 35  1  0  0  0  0
M  END
$$$$
