ZINC000000033943      none
 OpenBabel11202420153D

 32 34  0  0  0  0  0  0  0  0999 V2000
   32.1434   34.5800   58.7911 C   0  0  0  0  0  0  0  0  0  0  0  0
   32.2461   35.9840   59.3290 C   0  0  0  0  0  0  0  0  0  0  0  0
   31.8759   36.2707   60.6089 C   0  0  0  0  0  0  0  0  0  0  0  0
   31.9809   37.5865   61.0885 C   0  0  0  0  0  0  0  0  0  0  0  0
   31.5744   37.8839   62.4812 C   0  0  0  0  0  0  0  0  0  0  0  0
   30.5547   38.8005   62.7328 C   0  0  0  0  0  0  0  0  0  0  0  0
   30.1799   39.0739   64.0319 C   0  0  0  0  0  0  0  0  0  0  0  0
   30.8125   38.4420   65.0893 C   0  0  0  0  0  0  0  0  0  0  0  0
   31.8242   37.5323   64.8541 C   0  0  0  0  0  0  0  0  0  0  0  0
   32.2129   37.2459   63.5524 C   0  0  0  0  0  0  0  0  0  0  0  0
   33.2333   36.3286   63.3127 N   0  0  0  0  0  0  0  0  0  0  0  0
   32.4287   38.5651   60.3241 N   0  0  0  0  0  0  0  0  0  0  0  0
   32.8104   38.3407   59.0639 C   0  0  0  0  0  0  0  0  0  0  0  0
   33.2913   39.3869   58.2563 C   0  0  0  0  0  0  0  0  0  0  0  0
   33.6682   39.1316   56.9737 C   0  0  0  0  0  0  0  0  0  0  0  0
   33.5862   37.8459   56.4430 C   0  0  0  0  0  0  0  0  0  0  0  0
   33.1258   36.8077   57.1946 C   0  0  0  0  0  0  0  0  0  0  0  0
   32.7281   37.0337   58.5216 C   0  0  0  0  0  0  0  0  0  0  0  0
   31.1613   34.4343   58.3412 H   0  0  0  0  0  0  0  0  0  0  0  0
   32.9151   34.4221   58.0377 H   0  0  0  0  0  0  0  0  0  0  0  0
   32.2794   33.8681   59.6051 H   0  0  0  0  0  0  0  0  0  0  0  0
   31.5030   35.4880   61.2527 H   0  0  0  0  0  0  0  0  0  0  0  0
   30.0584   39.2958   61.9115 H   0  0  0  0  0  0  0  0  0  0  0  0
   29.3864   39.7807   64.2250 H   0  0  0  0  0  0  0  0  0  0  0  0
   30.5131   38.6622   66.1033 H   0  0  0  0  0  0  0  0  0  0  0  0
   32.3135   37.0431   65.6833 H   0  0  0  0  0  0  0  0  0  0  0  0
   33.7389   35.9610   64.0543 H   0  0  0  0  0  0  0  0  0  0  0  0
   33.4382   36.0576   62.4042 H   0  0  0  0  0  0  0  0  0  0  0  0
   33.3608   40.3893   58.6522 H   0  0  0  0  0  0  0  0  0  0  0  0
   34.0372   39.9382   56.3576 H   0  0  0  0  0  0  0  0  0  0  0  0
   33.8921   37.6702   55.4223 H   0  0  0  0  0  0  0  0  0  0  0  0
   33.0672   35.8155   56.7719 H   0  0  0  0  0  0  0  0  0  0  0  0
  1  2  1  0  0  0  0
  1 19  1  0  0  0  0
  1 20  1  0  0  0  0
  1 21  1  0  0  0  0
  2 18  2  0  0  0  0
  2  3  1  0  0  0  0
  3  4  2  0  0  0  0
  3 22  1  0  0  0  0
  4  5  1  0  0  0  0
  4 12  1  0  0  0  0
  5 10  2  0  0  0  0
  5  6  1  0  0  0  0
  6  7  2  0  0  0  0
  6 23  1  0  0  0  0
  7  8  1  0  0  0  0
  7 24  1  0  0  0  0
  8  9  2  0  0  0  0
  8 25  1  0  0  0  0
  9 10  1  0  0  0  0
  9 26  1  0  0  0  0
 10 11  1  0  0  0  0
 11 27  1  0  0  0  0
 11 28  1  0  0  0  0
 12 13  2  0  0  0  0
 13 18  1  0  0  0  0
 13 14  1  0  0  0  0
 14 15  2  0  0  0  0
 14 29  1  0  0  0  0
 15 16  1  0  0  0  0
 15 30  1  0  0  0  0
 16 17  2  0  0  0  0
 16 31  1  0  0  0  0
 17 18  1  0  0  0  0
 17 32  1  0  0  0  0
M  END
$$$$
