ZINC000000045563      none
 OpenBabel11202420153D

 22 23  0  0  0  0  0  0  0  0999 V2000
   31.4398   33.1770   62.5618 C   0  0  0  0  0  0  0  0  0  0  0  0
   31.0870   33.1624   61.1533 O   0  0  0  0  0  0  0  0  0  0  0  0
   32.0857   33.3572   60.2710 C   0  0  0  0  0  0  0  0  0  0  0  0
   33.2206   33.5344   60.6674 O   0  0  0  0  0  0  0  0  0  0  0  0
   31.7465   33.3549   58.5420 S   0  0  0  0  0  0  0  0  0  0  0  0
   32.2791   34.9814   58.1235 C   0  0  0  0  0  0  0  0  0  0  0  0
   32.2443   36.0141   58.9272 N   0  0  0  0  0  0  0  0  0  0  0  0
   32.7290   37.1085   58.2850 C   0  0  0  0  0  0  0  0  0  0  0  0
   32.9139   38.4408   58.6637 C   0  0  0  0  0  0  0  0  0  0  0  0
   33.4418   39.3402   57.7650 C   0  0  0  0  0  0  0  0  0  0  0  0
   33.7917   38.9341   56.4855 C   0  0  0  0  0  0  0  0  0  0  0  0
   33.6157   37.6227   56.0959 C   0  0  0  0  0  0  0  0  0  0  0  0
   33.0853   36.7027   56.9881 C   0  0  0  0  0  0  0  0  0  0  0  0
   32.7901   35.3523   56.9127 N   0  0  0  0  0  0  0  0  0  0  0  0
   32.9214   34.7768   56.1430 H   0  0  0  0  0  0  0  0  0  0  0  0
   30.5455   33.0086   63.1619 H   0  0  0  0  0  0  0  0  0  0  0  0
   32.1657   32.3893   62.7626 H   0  0  0  0  0  0  0  0  0  0  0  0
   31.8725   34.1440   62.8181 H   0  0  0  0  0  0  0  0  0  0  0  0
   32.6439   38.7638   59.6583 H   0  0  0  0  0  0  0  0  0  0  0  0
   33.5803   40.3707   58.0568 H   0  0  0  0  0  0  0  0  0  0  0  0
   34.2045   39.6496   55.7898 H   0  0  0  0  0  0  0  0  0  0  0  0
   33.8905   37.3128   55.0985 H   0  0  0  0  0  0  0  0  0  0  0  0
  1  2  1  0  0  0  0
  1 16  1  0  0  0  0
  1 17  1  0  0  0  0
  1 18  1  0  0  0  0
  2  3  1  0  0  0  0
  3  4  2  0  0  0  0
  3  5  1  0  0  0  0
  5  6  1  0  0  0  0
  6 14  1  0  0  0  0
  6  7  2  0  0  0  0
  7  8  1  0  0  0  0
  8 13  2  0  0  0  0
  8  9  1  0  0  0  0
  9 10  2  0  0  0  0
  9 19  1  0  0  0  0
 10 11  1  0  0  0  0
 10 20  1  0  0  0  0
 11 12  2  0  0  0  0
 11 21  1  0  0  0  0
 12 13  1  0  0  0  0
 12 22  1  0  0  0  0
 13 14  1  0  0  0  0
 14 15  1  0  0  0  0
M  END
$$$$
