ZINC000000036082      none
 OpenBabel11202420153D

 36 38  0  0  0  0  0  0  0  0999 V2000
   28.3529   36.9852   61.7134 O   0  0  0  0  0  0  0  0  0  0  0  0
   29.6690   36.4972   61.9346 S   0  0  0  0  0  0  0  0  0  0  0  0
   29.9566   35.1319   62.2043 O   0  0  0  0  0  0  0  0  0  0  0  0
   30.5503   36.9046   60.5931 N   0  0  0  0  0  0  0  0  0  0  0  0
   31.9955   36.6662   60.5657 C   0  0  0  0  0  0  0  0  0  0  0  0
   32.4345   36.4021   59.1486 C   0  0  0  0  0  0  0  0  0  0  0  0
   32.4522   35.1303   58.6635 C   0  0  0  0  0  0  0  0  0  0  0  0
   32.8613   34.8659   57.3581 C   0  0  0  0  0  0  0  0  0  0  0  0
   33.2539   35.8720   56.5293 C   0  0  0  0  0  0  0  0  0  0  0  0
   33.2484   37.1978   56.9944 C   0  0  0  0  0  0  0  0  0  0  0  0
   33.6462   38.2626   56.1679 C   0  0  0  0  0  0  0  0  0  0  0  0
   33.6276   39.5342   56.6524 C   0  0  0  0  0  0  0  0  0  0  0  0
   33.2198   39.7986   57.9587 C   0  0  0  0  0  0  0  0  0  0  0  0
   32.8274   38.7930   58.7876 C   0  0  0  0  0  0  0  0  0  0  0  0
   32.8332   37.4667   58.3227 C   0  0  0  0  0  0  0  0  0  0  0  0
   30.3210   37.4197   63.2869 C   0  0  0  0  0  0  0  0  0  0  0  0
   31.3412   36.8915   64.0557 C   0  0  0  0  0  0  0  0  0  0  0  0
   31.8561   37.6171   65.1137 C   0  0  0  0  0  0  0  0  0  0  0  0
   31.3436   38.8665   65.4091 C   0  0  0  0  0  0  0  0  0  0  0  0
   30.3200   39.3925   64.6434 C   0  0  0  0  0  0  0  0  0  0  0  0
   29.8087   38.6690   63.5822 C   0  0  0  0  0  0  0  0  0  0  0  0
   30.1097   37.3011   59.8253 H   0  0  0  0  0  0  0  0  0  0  0  0
   32.2330   35.8024   61.1866 H   0  0  0  0  0  0  0  0  0  0  0  0
   32.5158   37.5436   60.9497 H   0  0  0  0  0  0  0  0  0  0  0  0
   32.1452   34.3139   59.3004 H   0  0  0  0  0  0  0  0  0  0  0  0
   32.8668   33.8476   56.9983 H   0  0  0  0  0  0  0  0  0  0  0  0
   33.5681   35.6522   55.5197 H   0  0  0  0  0  0  0  0  0  0  0  0
   33.9654   38.0728   55.1538 H   0  0  0  0  0  0  0  0  0  0  0  0
   33.9339   40.3508   56.0153 H   0  0  0  0  0  0  0  0  0  0  0  0
   33.2148   40.8169   58.3186 H   0  0  0  0  0  0  0  0  0  0  0  0
   32.5132   39.0131   59.7971 H   0  0  0  0  0  0  0  0  0  0  0  0
   31.7385   35.9135   63.8277 H   0  0  0  0  0  0  0  0  0  0  0  0
   32.6556   37.2060   65.7122 H   0  0  0  0  0  0  0  0  0  0  0  0
   31.7429   39.4317   66.2384 H   0  0  0  0  0  0  0  0  0  0  0  0
   29.9194   40.3686   64.8744 H   0  0  0  0  0  0  0  0  0  0  0  0
   29.0087   39.0798   62.9842 H   0  0  0  0  0  0  0  0  0  0  0  0
  1  2  2  0  0  0  0
  2  3  2  0  0  0  0
  2  4  1  0  0  0  0
  2 16  1  0  0  0  0
  4  5  1  0  0  0  0
  4 22  1  0  0  0  0
  5  6  1  0  0  0  0
  5 23  1  0  0  0  0
  5 24  1  0  0  0  0
  6 15  2  0  0  0  0
  6  7  1  0  0  0  0
  7  8  2  0  0  0  0
  7 25  1  0  0  0  0
  8  9  1  0  0  0  0
  8 26  1  0  0  0  0
  9 10  2  0  0  0  0
  9 27  1  0  0  0  0
 10 15  1  0  0  0  0
 10 11  1  0  0  0  0
 11 12  2  0  0  0  0
 11 28  1  0  0  0  0
 12 13  1  0  0  0  0
 12 29  1  0  0  0  0
 13 14  2  0  0  0  0
 13 30  1  0  0  0  0
 14 15  1  0  0  0  0
 14 31  1  0  0  0  0
 16 21  2  0  0  0  0
 16 17  1  0  0  0  0
 17 18  2  0  0  0  0
 17 32  1  0  0  0  0
 18 19  1  0  0  0  0
 18 33  1  0  0  0  0
 19 20  2  0  0  0  0
 19 34  1  0  0  0  0
 20 21  1  0  0  0  0
 20 35  1  0  0  0  0
 21 36  1  0  0  0  0
M  END
$$$$
