ZINC000000002065      none
 OpenBabel11202420153D

 36 38  0  0  0  0  0  0  0  0999 V2000
   35.1745   39.6331   52.0961 C   0  0  0  0  0  0  0  0  0  0  0  0
   35.0838   38.2809   52.8063 C   0  0  0  0  0  0  0  0  0  0  0  0
   34.3876   38.4437   54.0702 O   0  0  0  0  0  0  0  0  0  0  0  0
   34.2224   37.3390   54.8245 C   0  0  0  0  0  0  0  0  0  0  0  0
   34.6486   36.2688   54.4366 O   0  0  0  0  0  0  0  0  0  0  0  0
   33.5262   37.4286   56.1181 C   0  0  0  0  0  0  0  0  0  0  0  0
   33.0003   38.5528   56.6740 N   0  0  0  0  0  0  0  0  0  0  0  0
   32.4704   38.2504   57.8247 C   0  0  0  0  0  0  0  0  0  0  0  0
   32.6533   36.9211   58.0584 N   0  0  0  0  0  0  0  0  0  0  0  0
   33.2889   36.4014   56.9792 C   0  0  0  0  0  0  0  0  0  0  0  0
   33.6501   34.9508   56.7891 C   0  0  0  0  0  0  0  0  0  0  0  0
   32.4084   34.1713   56.8386 N   0  0  0  0  0  0  0  0  0  0  0  0
   32.0106   33.3861   55.6675 C   0  0  0  0  0  0  0  0  0  0  0  0
   31.6335   34.1596   57.9226 C   0  0  0  0  0  0  0  0  0  0  0  0
   30.6404   33.4598   57.8712 O   0  0  0  0  0  0  0  0  0  0  0  0
   31.8479   34.8968   59.1686 C   0  0  0  0  0  0  0  0  0  0  0  0
   31.5724   34.2348   60.3787 C   0  0  0  0  0  0  0  0  0  0  0  0
   31.0410   32.5824   60.3549 Cl  0  0  0  0  0  0  0  0  0  0  0  0
   31.7214   34.8871   61.5819 C   0  0  0  0  0  0  0  0  0  0  0  0
   32.1372   36.2074   61.6122 C   0  0  0  0  0  0  0  0  0  0  0  0
   32.4176   36.8698   60.4354 C   0  0  0  0  0  0  0  0  0  0  0  0
   32.2898   36.2205   59.2110 C   0  0  0  0  0  0  0  0  0  0  0  0
   34.1702   40.0144   51.9113 H   0  0  0  0  0  0  0  0  0  0  0  0
   35.7207   40.3372   52.7239 H   0  0  0  0  0  0  0  0  0  0  0  0
   35.6970   39.5108   51.1474 H   0  0  0  0  0  0  0  0  0  0  0  0
   36.0880   37.8994   52.9912 H   0  0  0  0  0  0  0  0  0  0  0  0
   34.5376   37.5768   52.1788 H   0  0  0  0  0  0  0  0  0  0  0  0
   31.9677   38.9409   58.4856 H   0  0  0  0  0  0  0  0  0  0  0  0
   34.3200   34.6293   57.5866 H   0  0  0  0  0  0  0  0  0  0  0  0
   34.1343   34.8134   55.8223 H   0  0  0  0  0  0  0  0  0  0  0  0
   31.0717   32.8731   55.8758 H   0  0  0  0  0  0  0  0  0  0  0  0
   31.8804   34.0494   54.8124 H   0  0  0  0  0  0  0  0  0  0  0  0
   32.7839   32.6514   55.4429 H   0  0  0  0  0  0  0  0  0  0  0  0
   31.5130   34.3672   62.5053 H   0  0  0  0  0  0  0  0  0  0  0  0
   32.2416   36.7189   62.5577 H   0  0  0  0  0  0  0  0  0  0  0  0
   32.7345   37.9020   60.4640 H   0  0  0  0  0  0  0  0  0  0  0  0
  1  2  1  0  0  0  0
  1 23  1  0  0  0  0
  1 24  1  0  0  0  0
  1 25  1  0  0  0  0
  2  3  1  0  0  0  0
  2 26  1  0  0  0  0
  2 27  1  0  0  0  0
  3  4  1  0  0  0  0
  4  5  2  0  0  0  0
  4  6  1  0  0  0  0
  6 10  2  0  0  0  0
  6  7  1  0  0  0  0
  7  8  2  0  0  0  0
  8  9  1  0  0  0  0
  8 28  1  0  0  0  0
  9 22  1  0  0  0  0
  9 10  1  0  0  0  0
 10 11  1  0  0  0  0
 11 12  1  0  0  0  0
 11 29  1  0  0  0  0
 11 30  1  0  0  0  0
 12 13  1  0  0  0  0
 12 14  1  0  0  0  0
 13 31  1  0  0  0  0
 13 32  1  0  0  0  0
 13 33  1  0  0  0  0
 14 15  2  0  0  0  0
 14 16  1  0  0  0  0
 16 22  2  0  0  0  0
 16 17  1  0  0  0  0
 17 18  1  0  0  0  0
 17 19  2  0  0  0  0
 19 20  1  0  0  0  0
 19 34  1  0  0  0  0
 20 21  2  0  0  0  0
 20 35  1  0  0  0  0
 21 22  1  0  0  0  0
 21 36  1  0  0  0  0
M  END
$$$$
