ZINC000000010479      none
 OpenBabel11202420153D

 33 35  0  0  0  0  0  0  0  0999 V2000
   28.2593   34.9212   65.8511 C   0  0  0  0  0  0  0  0  0  0  0  0
   29.6983   35.4378   65.9056 C   0  0  0  0  0  0  0  0  0  0  0  0
   30.5472   34.4765   66.7399 C   0  0  0  0  0  0  0  0  0  0  0  0
   30.2543   35.5048   64.5079 C   0  0  0  0  0  0  0  0  0  0  0  0
   30.1026   36.6179   63.7781 C   0  0  0  0  0  0  0  0  0  0  0  0
   30.5980   36.6988   62.4725 N   0  0  0  0  0  0  0  0  0  0  0  0
   30.1515   35.8277   61.5288 C   0  0  0  0  0  0  0  0  0  0  0  0
   30.6169   35.8868   60.2593 C   0  0  0  0  0  0  0  0  0  0  0  0
   31.5691   36.8538   59.9073 C   0  0  0  0  0  0  0  0  0  0  0  0
   32.0158   37.7269   60.8558 C   0  0  0  0  0  0  0  0  0  0  0  0
   31.5123   37.6382   62.1642 C   0  0  0  0  0  0  0  0  0  0  0  0
   31.9036   38.4133   63.0222 O   0  0  0  0  0  0  0  0  0  0  0  0
   29.3991   37.7616   64.4012 C   0  0  0  0  0  0  0  0  0  0  0  0
   28.9055   38.8217   63.6563 C   0  0  0  0  0  0  0  0  0  0  0  0
   28.2844   39.8195   64.2591 N   0  0  0  0  0  0  0  0  0  0  0  0
   28.1099   39.8511   65.5675 C   0  0  0  0  0  0  0  0  0  0  0  0
   28.5621   38.8297   66.3762 C   0  0  0  0  0  0  0  0  0  0  0  0
   29.2257   37.7618   65.7936 C   0  0  0  0  0  0  0  0  0  0  0  0
   29.7118   36.7284   66.5181 O   0  0  0  0  0  0  0  0  0  0  0  0
   28.2468   33.9269   65.4049 H   0  0  0  0  0  0  0  0  0  0  0  0
   27.8527   34.8712   66.8613 H   0  0  0  0  0  0  0  0  0  0  0  0
   27.6530   35.5976   65.2486 H   0  0  0  0  0  0  0  0  0  0  0  0
   31.5762   34.8350   66.7724 H   0  0  0  0  0  0  0  0  0  0  0  0
   30.1482   34.4250   67.7529 H   0  0  0  0  0  0  0  0  0  0  0  0
   30.5223   33.4846   66.2886 H   0  0  0  0  0  0  0  0  0  0  0  0
   30.7754   34.6545   64.0931 H   0  0  0  0  0  0  0  0  0  0  0  0
   29.4183   35.0808   61.7951 H   0  0  0  0  0  0  0  0  0  0  0  0
   30.2548   35.1899   59.5179 H   0  0  0  0  0  0  0  0  0  0  0  0
   31.9483   36.9041   58.8973 H   0  0  0  0  0  0  0  0  0  0  0  0
   32.7494   38.4782   60.6033 H   0  0  0  0  0  0  0  0  0  0  0  0
   29.0285   38.8315   62.5833 H   0  0  0  0  0  0  0  0  0  0  0  0
   27.5956   40.6901   66.0123 H   0  0  0  0  0  0  0  0  0  0  0  0
   28.4124   38.8682   67.4451 H   0  0  0  0  0  0  0  0  0  0  0  0
  1  2  1  0  0  0  0
  1 20  1  0  0  0  0
  1 21  1  0  0  0  0
  1 22  1  0  0  0  0
  2 19  1  0  0  0  0
  2  3  1  0  0  0  0
  2  4  1  0  0  0  0
  3 23  1  0  0  0  0
  3 24  1  0  0  0  0
  3 25  1  0  0  0  0
  4  5  2  0  0  0  0
  4 26  1  0  0  0  0
  5  6  1  0  0  0  0
  5 13  1  0  0  0  0
  6 11  1  0  0  0  0
  6  7  1  0  0  0  0
  7  8  2  0  0  0  0
  7 27  1  0  0  0  0
  8  9  1  0  0  0  0
  8 28  1  0  0  0  0
  9 10  2  0  0  0  0
  9 29  1  0  0  0  0
 10 11  1  0  0  0  0
 10 30  1  0  0  0  0
 11 12  2  0  0  0  0
 13 18  2  0  0  0  0
 13 14  1  0  0  0  0
 14 15  2  0  0  0  0
 14 31  1  0  0  0  0
 15 16  1  0  0  0  0
 16 17  2  0  0  0  0
 16 32  1  0  0  0  0
 17 18  1  0  0  0  0
 17 33  1  0  0  0  0
 18 19  1  0  0  0  0
M  END
$$$$
