ZINC000000037553      none
 OpenBabel11202420153D

 25 26  0  0  0  0  0  0  0  0999 V2000
   33.6566   35.5040   56.6554 C   0  0  0  0  0  0  0  0  0  0  0  0
   33.3698   36.9232   57.0734 C   0  0  0  0  0  0  0  0  0  0  0  0
   33.6864   37.9784   56.2359 C   0  0  0  0  0  0  0  0  0  0  0  0
   33.4096   39.2696   56.6638 C   0  0  0  0  0  0  0  0  0  0  0  0
   32.8261   39.4614   57.9008 C   0  0  0  0  0  0  0  0  0  0  0  0
   32.5302   38.4357   58.6756 N   0  0  0  0  0  0  0  0  0  0  0  0
   32.7787   37.1897   58.3031 C   0  0  0  0  0  0  0  0  0  0  0  0
   32.4500   36.1367   59.1536 N   0  0  0  0  0  0  0  0  0  0  0  0
   31.8816   36.3884   60.3495 C   0  0  0  0  0  0  0  0  0  0  0  0
   31.6557   37.5359   60.6862 O   0  0  0  0  0  0  0  0  0  0  0  0
   31.5358   35.2807   61.2440 C   0  0  0  0  0  0  0  0  0  0  0  0
   31.7445   33.9554   60.9824 C   0  0  0  0  0  0  0  0  0  0  0  0
   31.3295   33.1287   61.9993 C   0  0  0  0  0  0  0  0  0  0  0  0
   30.7994   33.7527   63.0578 C   0  0  0  0  0  0  0  0  0  0  0  0
   30.7929   35.4435   62.8294 S   0  0  0  0  0  0  0  0  0  0  0  0
   32.7961   35.1017   56.1209 H   0  0  0  0  0  0  0  0  0  0  0  0
   34.5300   35.4867   56.0034 H   0  0  0  0  0  0  0  0  0  0  0  0
   33.8512   34.8971   57.5397 H   0  0  0  0  0  0  0  0  0  0  0  0
   34.1426   37.8017   55.2730 H   0  0  0  0  0  0  0  0  0  0  0  0
   33.6484   40.1153   56.0361 H   0  0  0  0  0  0  0  0  0  0  0  0
   32.6089   40.4642   58.2380 H   0  0  0  0  0  0  0  0  0  0  0  0
   32.6301   35.2222   58.8851 H   0  0  0  0  0  0  0  0  0  0  0  0
   32.1905   33.5938   60.0676 H   0  0  0  0  0  0  0  0  0  0  0  0
   31.4250   32.0542   61.9478 H   0  0  0  0  0  0  0  0  0  0  0  0
   30.4253   33.2527   63.9390 H   0  0  0  0  0  0  0  0  0  0  0  0
  1  2  1  0  0  0  0
  1 16  1  0  0  0  0
  1 17  1  0  0  0  0
  1 18  1  0  0  0  0
  2  7  2  0  0  0  0
  2  3  1  0  0  0  0
  3  4  2  0  0  0  0
  3 19  1  0  0  0  0
  4  5  1  0  0  0  0
  4 20  1  0  0  0  0
  5  6  2  0  0  0  0
  5 21  1  0  0  0  0
  6  7  1  0  0  0  0
  7  8  1  0  0  0  0
  8  9  1  0  0  0  0
  8 22  1  0  0  0  0
  9 10  2  0  0  0  0
  9 11  1  0  0  0  0
 11 15  1  0  0  0  0
 11 12  2  0  0  0  0
 12 13  1  0  0  0  0
 12 23  1  0  0  0  0
 13 14  2  0  0  0  0
 13 24  1  0  0  0  0
 14 15  1  0  0  0  0
 14 25  1  0  0  0  0
M  END
$$$$
