ZINC000000004710      none
 OpenBabel11202420153D

 21 22  0  0  1  0  0  0  0  0999 V2000
   32.9967   36.6947   63.3844 O   0  0  0  0  0  0  0  0  0  0  0  0
   32.2021   36.8289   62.4781 C   0  0  0  0  0  0  0  0  0  0  0  0
   31.0238   37.7328   62.6832 C   0  0  0  0  0  0  0  0  0  0  0  0
   29.9602   37.4396   61.7323 N   0  0  0  0  0  0  0  0  0  0  0  0
   30.1686   36.7674   60.5959 C   0  0  0  0  0  0  0  0  0  0  0  0
   29.2263   36.5623   59.8605 O   0  0  0  0  0  0  0  0  0  0  0  0
   31.5201   36.2607   60.1906 C   0  0  1  0  0  0  0  0  0  0  0  0
   31.4089   35.2737   59.7417 H   0  0  0  0  0  0  0  0  0  0  0  0
   32.1190   37.1998   59.1756 C   0  0  0  0  0  0  0  0  0  0  0  0
   32.4732   36.8655   57.9337 C   0  0  0  0  0  0  0  0  0  0  0  0
   33.0006   37.8994   57.1794 C   0  0  0  0  0  0  0  0  0  0  0  0
   33.0831   39.0711   57.8115 C   0  0  0  0  0  0  0  0  0  0  0  0
   32.4648   38.9025   59.4494 S   0  0  0  0  0  0  0  0  0  0  0  0
   32.4132   36.1652   61.3372 N   0  0  0  0  0  0  0  0  0  0  0  0
   31.3414   38.7676   62.5557 H   0  0  0  0  0  0  0  0  0  0  0  0
   30.6441   37.5984   63.6961 H   0  0  0  0  0  0  0  0  0  0  0  0
   29.0609   37.7418   61.9343 H   0  0  0  0  0  0  0  0  0  0  0  0
   32.3550   35.8647   57.5454 H   0  0  0  0  0  0  0  0  0  0  0  0
   33.3245   37.7665   56.1577 H   0  0  0  0  0  0  0  0  0  0  0  0
   33.4699   39.9838   57.3830 H   0  0  0  0  0  0  0  0  0  0  0  0
   33.1954   35.5954   61.2699 H   0  0  0  0  0  0  0  0  0  0  0  0
  1  2  2  0  0  0  0
  2 14  1  0  0  0  0
  2  3  1  0  0  0  0
  3  4  1  0  0  0  0
  3 15  1  0  0  0  0
  3 16  1  0  0  0  0
  4  5  1  0  0  0  0
  4 17  1  0  0  0  0
  5  6  2  0  0  0  0
  5  7  1  0  0  0  0
  7  8  1  6  0  0  0
  7  9  1  0  0  0  0
  7 14  1  0  0  0  0
  9 13  1  0  0  0  0
  9 10  2  0  0  0  0
 10 11  1  0  0  0  0
 10 18  1  0  0  0  0
 11 12  2  0  0  0  0
 11 19  1  0  0  0  0
 12 13  1  0  0  0  0
 12 20  1  0  0  0  0
 14 21  1  0  0  0  0
M  END
$$$$
