ZINC000000013447      none
 OpenBabel11202420153D

 42 44  0  0  0  0  0  0  0  0999 V2000
   29.3359   35.4872   64.0961 O   0  0  0  0  0  0  0  0  0  0  0  0
   30.4004   36.0492   63.9486 C   0  0  0  0  0  0  0  0  0  0  0  0
   31.4713   35.9234   65.0015 C   0  0  0  0  0  0  0  0  0  0  0  0
   31.8017   37.2520   65.5231 N   0  0  0  0  0  0  0  0  0  0  0  0
   30.8551   38.3709   65.5984 C   0  0  0  0  0  0  0  0  0  0  0  0
   31.4845   39.3802   66.5839 C   0  0  0  0  0  0  0  0  0  0  0  0
   32.9906   39.0423   66.4587 C   0  0  0  0  0  0  0  0  0  0  0  0
   33.0106   37.6026   65.9944 C   0  0  0  0  0  0  0  0  0  0  0  0
   33.9772   36.8713   66.0405 O   0  0  0  0  0  0  0  0  0  0  0  0
   30.6259   36.7862   62.8429 N   0  0  0  0  0  0  0  0  0  0  0  0
   31.9074   37.4810   62.6471 C   0  0  0  0  0  0  0  0  0  0  0  0
   32.4467   37.1143   61.2553 C   0  0  0  0  0  0  0  0  0  0  0  0
   31.4210   37.4079   60.2455 N   0  0  0  0  0  0  0  0  0  0  0  0
   31.9288   37.2461   58.9545 C   0  0  0  0  0  0  0  0  0  0  0  0
   31.9432   38.3197   58.0725 C   0  0  0  0  0  0  0  0  0  0  0  0
   32.4463   38.1571   56.7969 C   0  0  0  0  0  0  0  0  0  0  0  0
   32.9352   36.9273   56.3959 C   0  0  0  0  0  0  0  0  0  0  0  0
   32.9224   35.8556   57.2714 C   0  0  0  0  0  0  0  0  0  0  0  0
   33.5377   34.3136   56.7638 Cl  0  0  0  0  0  0  0  0  0  0  0  0
   32.4255   36.0135   58.5516 C   0  0  0  0  0  0  0  0  0  0  0  0
   30.2228   36.5823   60.4472 C   0  0  0  0  0  0  0  0  0  0  0  0
   29.5947   36.9221   61.8030 C   0  0  0  0  0  0  0  0  0  0  0  0
   32.3618   35.4737   64.5622 H   0  0  0  0  0  0  0  0  0  0  0  0
   31.1094   35.2937   65.8142 H   0  0  0  0  0  0  0  0  0  0  0  0
   30.7328   38.8284   64.6167 H   0  0  0  0  0  0  0  0  0  0  0  0
   29.8923   38.0258   65.9757 H   0  0  0  0  0  0  0  0  0  0  0  0
   31.2863   40.4056   66.2719 H   0  0  0  0  0  0  0  0  0  0  0  0
   31.1287   39.2075   67.5996 H   0  0  0  0  0  0  0  0  0  0  0  0
   33.4845   39.1381   67.4257 H   0  0  0  0  0  0  0  0  0  0  0  0
   33.4685   39.6874   65.7216 H   0  0  0  0  0  0  0  0  0  0  0  0
   31.7535   38.5581   62.7115 H   0  0  0  0  0  0  0  0  0  0  0  0
   32.6166   37.1632   63.4114 H   0  0  0  0  0  0  0  0  0  0  0  0
   32.6930   36.0529   61.2256 H   0  0  0  0  0  0  0  0  0  0  0  0
   33.3409   37.7016   61.0469 H   0  0  0  0  0  0  0  0  0  0  0  0
   31.5617   39.2806   58.3847 H   0  0  0  0  0  0  0  0  0  0  0  0
   32.4577   38.9916   56.1113 H   0  0  0  0  0  0  0  0  0  0  0  0
   33.3274   36.8028   55.3973 H   0  0  0  0  0  0  0  0  0  0  0  0
   32.4196   35.1783   59.2363 H   0  0  0  0  0  0  0  0  0  0  0  0
   30.5001   35.5283   60.4288 H   0  0  0  0  0  0  0  0  0  0  0  0
   29.5042   36.7833   59.6528 H   0  0  0  0  0  0  0  0  0  0  0  0
   28.7742   36.2348   62.0090 H   0  0  0  0  0  0  0  0  0  0  0  0
   29.2227   37.9466   61.7878 H   0  0  0  0  0  0  0  0  0  0  0  0
  1  2  2  0  0  0  0
  2  3  1  0  0  0  0
  2 10  1  0  0  0  0
  3  4  1  0  0  0  0
  3 23  1  0  0  0  0
  3 24  1  0  0  0  0
  4  8  1  0  0  0  0
  4  5  1  0  0  0  0
  5  6  1  0  0  0  0
  5 25  1  0  0  0  0
  5 26  1  0  0  0  0
  6  7  1  0  0  0  0
  6 27  1  0  0  0  0
  6 28  1  0  0  0  0
  7  8  1  0  0  0  0
  7 29  1  0  0  0  0
  7 30  1  0  0  0  0
  8  9  2  0  0  0  0
 10 22  1  0  0  0  0
 10 11  1  0  0  0  0
 11 12  1  0  0  0  0
 11 31  1  0  0  0  0
 11 32  1  0  0  0  0
 12 13  1  0  0  0  0
 12 33  1  0  0  0  0
 12 34  1  0  0  0  0
 13 14  1  0  0  0  0
 13 21  1  0  0  0  0
 14 20  2  0  0  0  0
 14 15  1  0  0  0  0
 15 16  2  0  0  0  0
 15 35  1  0  0  0  0
 16 17  1  0  0  0  0
 16 36  1  0  0  0  0
 17 18  2  0  0  0  0
 17 37  1  0  0  0  0
 18 19  1  0  0  0  0
 18 20  1  0  0  0  0
 20 38  1  0  0  0  0
 21 22  1  0  0  0  0
 21 39  1  0  0  0  0
 21 40  1  0  0  0  0
 22 41  1  0  0  0  0
 22 42  1  0  0  0  0
M  END
$$$$
