ZINC000000028951      none
 OpenBabel11202420163D

 36 38  0  0  0  0  0  0  0  0999 V2000
   32.1884   35.0537   63.0728 C   0  0  0  0  0  0  0  0  0  0  0  0
   32.6406   36.3925   63.2855 O   0  0  0  0  0  0  0  0  0  0  0  0
   31.6944   37.3264   63.5552 C   0  0  0  0  0  0  0  0  0  0  0  0
   31.3208   37.5813   64.8664 C   0  0  0  0  0  0  0  0  0  0  0  0
   30.3579   38.5300   65.1398 C   0  0  0  0  0  0  0  0  0  0  0  0
   29.7570   39.2372   64.1091 C   0  0  0  0  0  0  0  0  0  0  0  0
   30.1159   38.9970   62.8005 C   0  0  0  0  0  0  0  0  0  0  0  0
   31.0895   38.0378   62.5101 C   0  0  0  0  0  0  0  0  0  0  0  0
   31.4781   37.7753   61.1117 C   0  0  0  0  0  0  0  0  0  0  0  0
   30.8902   36.9291   60.4658 O   0  0  0  0  0  0  0  0  0  0  0  0
   32.4848   38.4731   60.5496 N   0  0  0  0  0  0  0  0  0  0  0  0
   32.8539   38.2238   59.2218 C   0  0  0  0  0  0  0  0  0  0  0  0
   32.6844   36.9534   58.6767 C   0  0  0  0  0  0  0  0  0  0  0  0
   33.0382   36.6983   57.3872 C   0  0  0  0  0  0  0  0  0  0  0  0
   33.5844   37.7157   56.5762 C   0  0  0  0  0  0  0  0  0  0  0  0
   33.9870   37.6442   55.2906 N   0  0  0  0  0  0  0  0  0  0  0  0
   34.4593   38.7133   54.7466 C   0  0  0  0  0  0  0  0  0  0  0  0
   35.0364   38.8264   53.0857 S   0  0  0  0  0  0  0  0  0  0  0  0
   34.7500   37.1255   52.5370 C   0  0  0  0  0  0  0  0  0  0  0  0
   34.4465   40.0424   55.8973 S   0  0  0  0  0  0  0  0  0  0  0  0
   33.7531   38.9891   57.1278 C   0  0  0  0  0  0  0  0  0  0  0  0
   33.3825   39.2402   58.4462 C   0  0  0  0  0  0  0  0  0  0  0  0
   31.6720   34.6986   63.9647 H   0  0  0  0  0  0  0  0  0  0  0  0
   31.5048   35.0315   62.2241 H   0  0  0  0  0  0  0  0  0  0  0  0
   33.0435   34.4097   62.8673 H   0  0  0  0  0  0  0  0  0  0  0  0
   31.7842   37.0354   65.6750 H   0  0  0  0  0  0  0  0  0  0  0  0
   30.0692   38.7258   66.1619 H   0  0  0  0  0  0  0  0  0  0  0  0
   29.0044   39.9788   64.3325 H   0  0  0  0  0  0  0  0  0  0  0  0
   29.6485   39.5523   62.0010 H   0  0  0  0  0  0  0  0  0  0  0  0
   32.9538   39.1482   61.0646 H   0  0  0  0  0  0  0  0  0  0  0  0
   32.2676   36.1628   59.2831 H   0  0  0  0  0  0  0  0  0  0  0  0
   32.8990   35.7075   56.9806 H   0  0  0  0  0  0  0  0  0  0  0  0
   33.6890   36.8900   52.6222 H   0  0  0  0  0  0  0  0  0  0  0  0
   35.0628   37.0213   51.4981 H   0  0  0  0  0  0  0  0  0  0  0  0
   35.3254   36.4409   53.1602 H   0  0  0  0  0  0  0  0  0  0  0  0
   33.5114   40.2274   58.8647 H   0  0  0  0  0  0  0  0  0  0  0  0
  1  2  1  0  0  0  0
  1 23  1  0  0  0  0
  1 24  1  0  0  0  0
  1 25  1  0  0  0  0
  2  3  1  0  0  0  0
  3  8  2  0  0  0  0
  3  4  1  0  0  0  0
  4  5  2  0  0  0  0
  4 26  1  0  0  0  0
  5  6  1  0  0  0  0
  5 27  1  0  0  0  0
  6  7  2  0  0  0  0
  6 28  1  0  0  0  0
  7  8  1  0  0  0  0
  7 29  1  0  0  0  0
  8  9  1  0  0  0  0
  9 10  2  0  0  0  0
  9 11  1  0  0  0  0
 11 12  1  0  0  0  0
 11 30  1  0  0  0  0
 12 22  2  0  0  0  0
 12 13  1  0  0  0  0
 13 14  2  0  0  0  0
 13 31  1  0  0  0  0
 14 15  1  0  0  0  0
 14 32  1  0  0  0  0
 15 21  2  0  0  0  0
 15 16  1  0  0  0  0
 16 17  2  0  0  0  0
 17 18  1  0  0  0  0
 17 20  1  0  0  0  0
 18 19  1  0  0  0  0
 19 33  1  0  0  0  0
 19 34  1  0  0  0  0
 19 35  1  0  0  0  0
 20 21  1  0  0  0  0
 21 22  1  0  0  0  0
 22 36  1  0  0  0  0
M  END
$$$$
