ZINC000000037984      none
 OpenBabel11202420153D

 40 43  0  0  0  0  0  0  0  0999 V2000
   34.3656   39.9434   54.9748 C   0  0  0  0  0  0  0  0  0  0  0  0
   33.9530   40.1918   56.2716 C   0  0  0  0  0  0  0  0  0  0  0  0
   33.5451   39.1505   57.0802 C   0  0  0  0  0  0  0  0  0  0  0  0
   33.5498   37.8464   56.5880 C   0  0  0  0  0  0  0  0  0  0  0  0
   33.1131   36.7232   57.4520 C   0  0  0  0  0  0  0  0  0  0  0  0
   33.6514   35.5209   57.2564 N   0  0  0  0  0  0  0  0  0  0  0  0
   33.3021   34.4796   57.9964 C   0  0  0  0  0  0  0  0  0  0  0  0
   33.8670   33.2400   57.7840 N   0  0  0  0  0  0  0  0  0  0  0  0
   34.8676   33.0622   56.7286 C   0  0  0  0  0  0  0  0  0  0  0  0
   34.2611   33.4190   55.3960 C   0  0  0  0  0  0  0  0  0  0  0  0
   32.9941   32.9679   55.0579 C   0  0  0  0  0  0  0  0  0  0  0  0
   32.4782   33.3169   53.8195 C   0  0  0  0  0  0  0  0  0  0  0  0
   33.2338   34.1067   52.9734 C   0  0  0  0  0  0  0  0  0  0  0  0
   34.4335   34.5215   53.3302 N   0  0  0  0  0  0  0  0  0  0  0  0
   34.9581   34.2044   54.4979 C   0  0  0  0  0  0  0  0  0  0  0  0
   32.3283   34.6708   59.0086 C   0  0  0  0  0  0  0  0  0  0  0  0
   31.8982   33.6242   59.8310 C   0  0  0  0  0  0  0  0  0  0  0  0
   30.9578   33.8651   60.7896 C   0  0  0  0  0  0  0  0  0  0  0  0
   30.4207   35.1378   60.9605 C   0  0  0  0  0  0  0  0  0  0  0  0
   30.8262   36.1816   60.1830 C   0  0  0  0  0  0  0  0  0  0  0  0
   31.7872   35.9683   59.1842 C   0  0  0  0  0  0  0  0  0  0  0  0
   32.2073   36.9567   58.3832 N   0  0  0  0  0  0  0  0  0  0  0  0
   33.9720   37.6014   55.2823 C   0  0  0  0  0  0  0  0  0  0  0  0
   34.3727   38.6511   54.4811 C   0  0  0  0  0  0  0  0  0  0  0  0
   34.6836   40.7614   54.3455 H   0  0  0  0  0  0  0  0  0  0  0  0
   33.9498   41.2027   56.6519 H   0  0  0  0  0  0  0  0  0  0  0  0
   33.2225   39.3457   58.0922 H   0  0  0  0  0  0  0  0  0  0  0  0
   33.6021   32.4857   58.3332 H   0  0  0  0  0  0  0  0  0  0  0  0
   35.1968   32.0232   56.7115 H   0  0  0  0  0  0  0  0  0  0  0  0
   35.7215   33.7108   56.9246 H   0  0  0  0  0  0  0  0  0  0  0  0
   32.4246   32.3557   55.7415 H   0  0  0  0  0  0  0  0  0  0  0  0
   31.4963   32.9800   53.5214 H   0  0  0  0  0  0  0  0  0  0  0  0
   32.8372   34.3869   52.0087 H   0  0  0  0  0  0  0  0  0  0  0  0
   35.9438   34.5629   54.7552 H   0  0  0  0  0  0  0  0  0  0  0  0
   32.3079   32.6325   59.7081 H   0  0  0  0  0  0  0  0  0  0  0  0
   30.6254   33.0570   61.4245 H   0  0  0  0  0  0  0  0  0  0  0  0
   29.6775   35.3028   61.7265 H   0  0  0  0  0  0  0  0  0  0  0  0
   30.4008   37.1637   60.3267 H   0  0  0  0  0  0  0  0  0  0  0  0
   33.9816   36.5924   54.8971 H   0  0  0  0  0  0  0  0  0  0  0  0
   34.6963   38.4630   53.4680 H   0  0  0  0  0  0  0  0  0  0  0  0
  1 24  2  0  0  0  0
  1  2  1  0  0  0  0
  1 25  1  0  0  0  0
  2  3  2  0  0  0  0
  2 26  1  0  0  0  0
  3  4  1  0  0  0  0
  3 27  1  0  0  0  0
  4  5  1  0  0  0  0
  4 23  2  0  0  0  0
  5 22  2  0  0  0  0
  5  6  1  0  0  0  0
  6  7  2  0  0  0  0
  7  8  1  0  0  0  0
  7 16  1  0  0  0  0
  8  9  1  0  0  0  0
  8 28  1  0  0  0  0
  9 10  1  0  0  0  0
  9 29  1  0  0  0  0
  9 30  1  0  0  0  0
 10 15  2  0  0  0  0
 10 11  1  0  0  0  0
 11 12  2  0  0  0  0
 11 31  1  0  0  0  0
 12 13  1  0  0  0  0
 12 32  1  0  0  0  0
 13 14  2  0  0  0  0
 13 33  1  0  0  0  0
 14 15  1  0  0  0  0
 15 34  1  0  0  0  0
 16 21  2  0  0  0  0
 16 17  1  0  0  0  0
 17 18  2  0  0  0  0
 17 35  1  0  0  0  0
 18 19  1  0  0  0  0
 18 36  1  0  0  0  0
 19 20  2  0  0  0  0
 19 37  1  0  0  0  0
 20 21  1  0  0  0  0
 20 38  1  0  0  0  0
 21 22  1  0  0  0  0
 23 24  1  0  0  0  0
 23 39  1  0  0  0  0
 24 40  1  0  0  0  0
M  END
$$$$
