ZINC000000036072      none
 OpenBabel11202420153D

 42 43  0  0  1  0  0  0  0  0999 V2000
   32.4970   33.8141   60.8528 C   0  0  0  0  0  0  0  0  0  0  0  0
   31.5375   34.5999   60.1428 O   0  0  0  0  0  0  0  0  0  0  0  0
   32.0137   35.6411   59.4088 C   0  0  0  0  0  0  0  0  0  0  0  0
   32.3628   35.4502   58.0850 C   0  0  0  0  0  0  0  0  0  0  0  0
   32.8578   36.5188   57.3333 C   0  0  0  0  0  0  0  0  0  0  0  0
   33.2365   36.3163   55.9210 C   0  0  0  0  0  0  0  0  0  0  0  0
   33.1920   37.2474   55.1403 O   0  0  0  0  0  0  0  0  0  0  0  0
   33.6318   35.0997   55.4970 N   0  0  0  0  0  0  0  0  0  0  0  0
   34.0075   34.8988   54.0954 C   0  0  0  0  0  0  0  0  0  0  0  0
   33.6930   33.4591   53.6843 C   0  0  2  0  0  0  0  0  0  0  0  0
   32.7435   33.1410   54.1148 H   0  0  0  0  0  0  0  0  0  0  0  0
   34.8293   32.5121   54.1296 C   0  0  0  0  0  0  0  0  0  0  0  0
   34.9388   31.4889   52.9771 C   0  0  0  0  0  0  0  0  0  0  0  0
   33.8556   31.9387   51.9717 C   0  0  0  0  0  0  0  0  0  0  0  0
   33.6588   33.3431   52.2450 O   0  0  0  0  0  0  0  0  0  0  0  0
   32.9931   37.7792   57.9203 C   0  0  0  0  0  0  0  0  0  0  0  0
   32.6372   37.9662   59.2429 C   0  0  0  0  0  0  0  0  0  0  0  0
   32.7692   39.1929   59.8152 O   0  0  0  0  0  0  0  0  0  0  0  0
   33.2813   40.2416   58.9906 C   0  0  0  0  0  0  0  0  0  0  0  0
   32.1443   36.8997   59.9899 C   0  0  0  0  0  0  0  0  0  0  0  0
   31.7951   37.0860   61.2899 O   0  0  0  0  0  0  0  0  0  0  0  0
   30.4420   37.4642   61.5504 C   0  0  0  0  0  0  0  0  0  0  0  0
   31.9855   33.0193   61.3957 H   0  0  0  0  0  0  0  0  0  0  0  0
   33.2021   33.3761   60.1463 H   0  0  0  0  0  0  0  0  0  0  0  0
   33.0353   34.4476   61.5578 H   0  0  0  0  0  0  0  0  0  0  0  0
   32.2573   34.4749   57.6334 H   0  0  0  0  0  0  0  0  0  0  0  0
   33.6674   34.3570   56.1199 H   0  0  0  0  0  0  0  0  0  0  0  0
   33.4442   35.5878   53.4658 H   0  0  0  0  0  0  0  0  0  0  0  0
   35.0745   35.0862   53.9747 H   0  0  0  0  0  0  0  0  0  0  0  0
   35.7634   33.0625   54.2416 H   0  0  0  0  0  0  0  0  0  0  0  0
   34.5670   32.0130   55.0626 H   0  0  0  0  0  0  0  0  0  0  0  0
   35.9270   31.5335   52.5193 H   0  0  0  0  0  0  0  0  0  0  0  0
   34.7319   30.4819   53.3394 H   0  0  0  0  0  0  0  0  0  0  0  0
   34.2047   31.7965   50.9489 H   0  0  0  0  0  0  0  0  0  0  0  0
   32.9307   31.3865   52.1381 H   0  0  0  0  0  0  0  0  0  0  0  0
   33.3758   38.6067   57.3414 H   0  0  0  0  0  0  0  0  0  0  0  0
   34.2777   39.9738   58.6390 H   0  0  0  0  0  0  0  0  0  0  0  0
   32.6212   40.3868   58.1355 H   0  0  0  0  0  0  0  0  0  0  0  0
   33.3358   41.1644   59.5683 H   0  0  0  0  0  0  0  0  0  0  0  0
   30.2260   38.4087   61.0509 H   0  0  0  0  0  0  0  0  0  0  0  0
   30.2974   37.5800   62.6245 H   0  0  0  0  0  0  0  0  0  0  0  0
   29.7702   36.6925   61.1744 H   0  0  0  0  0  0  0  0  0  0  0  0
  1  2  1  0  0  0  0
  1 23  1  0  0  0  0
  1 24  1  0  0  0  0
  1 25  1  0  0  0  0
  2  3  1  0  0  0  0
  3 20  2  0  0  0  0
  3  4  1  0  0  0  0
  4  5  2  0  0  0  0
  4 26  1  0  0  0  0
  5  6  1  0  0  0  0
  5 16  1  0  0  0  0
  6  7  2  0  0  0  0
  6  8  1  0  0  0  0
  8  9  1  0  0  0  0
  8 27  1  0  0  0  0
  9 10  1  0  0  0  0
  9 28  1  0  0  0  0
  9 29  1  0  0  0  0
 10 11  1  1  0  0  0
 10 15  1  0  0  0  0
 10 12  1  0  0  0  0
 12 13  1  0  0  0  0
 12 30  1  0  0  0  0
 12 31  1  0  0  0  0
 13 14  1  0  0  0  0
 13 32  1  0  0  0  0
 13 33  1  0  0  0  0
 14 15  1  0  0  0  0
 14 34  1  0  0  0  0
 14 35  1  0  0  0  0
 16 17  2  0  0  0  0
 16 36  1  0  0  0  0
 17 18  1  0  0  0  0
 17 20  1  0  0  0  0
 18 19  1  0  0  0  0
 19 37  1  0  0  0  0
 19 38  1  0  0  0  0
 19 39  1  0  0  0  0
 20 21  1  0  0  0  0
 21 22  1  0  0  0  0
 22 40  1  0  0  0  0
 22 41  1  0  0  0  0
 22 42  1  0  0  0  0
M  END
$$$$
