ZINC000000031743      none
 OpenBabel11202420163D

 41 41  0  0  0  0  0  0  0  0999 V2000
   30.4870   38.5124   62.7425 C   0  0  0  0  0  0  0  0  0  0  0  0
   30.7807   37.8910   61.3755 C   0  0  0  0  0  0  0  0  0  0  0  0
   31.1429   36.4152   61.5535 C   0  0  0  0  0  0  0  0  0  0  0  0
   29.9726   35.6781   62.2079 C   0  0  0  0  0  0  0  0  0  0  0  0
   32.3815   36.2976   62.4439 C   0  0  0  0  0  0  0  0  0  0  0  0
   31.4322   35.8031   60.2071 C   0  0  0  0  0  0  0  0  0  0  0  0
   30.7678   34.8693   59.8099 O   0  0  0  0  0  0  0  0  0  0  0  0
   32.4291   36.2935   59.4440 N   0  0  0  0  0  0  0  0  0  0  0  0
   32.6980   35.7248   58.1926 C   0  0  0  0  0  0  0  0  0  0  0  0
   33.2251   36.5067   57.1732 C   0  0  0  0  0  0  0  0  0  0  0  0
   33.4856   35.9473   55.9383 C   0  0  0  0  0  0  0  0  0  0  0  0
   33.2304   34.6000   55.7188 C   0  0  0  0  0  0  0  0  0  0  0  0
   33.4998   34.0310   54.4675 N   0  0  0  0  0  0  0  0  0  0  0  0
   32.8276   34.5421   53.2704 C   0  0  0  0  0  0  0  0  0  0  0  0
   34.3774   33.0132   54.3647 C   0  0  0  0  0  0  0  0  0  0  0  0
   35.0688   32.4874   55.5962 C   0  0  0  0  0  0  0  0  0  0  0  0
   34.6107   32.5205   53.2812 O   0  0  0  0  0  0  0  0  0  0  0  0
   32.7079   33.8168   56.7396 C   0  0  0  0  0  0  0  0  0  0  0  0
   32.4425   34.3775   57.9728 C   0  0  0  0  0  0  0  0  0  0  0  0
   31.3694   38.4287   63.3769 H   0  0  0  0  0  0  0  0  0  0  0  0
   30.2289   39.5637   62.6158 H   0  0  0  0  0  0  0  0  0  0  0  0
   29.6533   37.9873   63.2086 H   0  0  0  0  0  0  0  0  0  0  0  0
   31.6144   38.4160   60.9094 H   0  0  0  0  0  0  0  0  0  0  0  0
   29.8982   37.9747   60.7411 H   0  0  0  0  0  0  0  0  0  0  0  0
   30.2307   34.6267   62.3345 H   0  0  0  0  0  0  0  0  0  0  0  0
   29.7634   36.1208   63.1816 H   0  0  0  0  0  0  0  0  0  0  0  0
   29.0901   35.7617   61.5735 H   0  0  0  0  0  0  0  0  0  0  0  0
   33.2153   36.8228   61.9777 H   0  0  0  0  0  0  0  0  0  0  0  0
   32.1722   36.7403   63.4177 H   0  0  0  0  0  0  0  0  0  0  0  0
   32.6396   35.2462   62.5705 H   0  0  0  0  0  0  0  0  0  0  0  0
   32.9605   37.0404   59.7616 H   0  0  0  0  0  0  0  0  0  0  0  0
   33.4276   37.5536   57.3452 H   0  0  0  0  0  0  0  0  0  0  0  0
   33.8920   36.5562   55.1444 H   0  0  0  0  0  0  0  0  0  0  0  0
   33.4665   35.2774   52.7810 H   0  0  0  0  0  0  0  0  0  0  0  0
   32.6305   33.7183   52.5845 H   0  0  0  0  0  0  0  0  0  0  0  0
   31.8858   35.0113   53.5548 H   0  0  0  0  0  0  0  0  0  0  0  0
   34.5151   31.6339   55.9873 H   0  0  0  0  0  0  0  0  0  0  0  0
   36.0816   32.1766   55.3394 H   0  0  0  0  0  0  0  0  0  0  0  0
   35.1100   33.2712   56.3524 H   0  0  0  0  0  0  0  0  0  0  0  0
   32.5095   32.7690   56.5689 H   0  0  0  0  0  0  0  0  0  0  0  0
   32.0364   33.7684   58.7669 H   0  0  0  0  0  0  0  0  0  0  0  0
  1  2  1  0  0  0  0
  1 20  1  0  0  0  0
  1 21  1  0  0  0  0
  1 22  1  0  0  0  0
  2  3  1  0  0  0  0
  2 23  1  0  0  0  0
  2 24  1  0  0  0  0
  3  4  1  0  0  0  0
  3  5  1  0  0  0  0
  3  6  1  0  0  0  0
  4 25  1  0  0  0  0
  4 26  1  0  0  0  0
  4 27  1  0  0  0  0
  5 28  1  0  0  0  0
  5 29  1  0  0  0  0
  5 30  1  0  0  0  0
  6  7  2  0  0  0  0
  6  8  1  0  0  0  0
  8  9  1  0  0  0  0
  8 31  1  0  0  0  0
  9 19  2  0  0  0  0
  9 10  1  0  0  0  0
 10 11  2  0  0  0  0
 10 32  1  0  0  0  0
 11 12  1  0  0  0  0
 11 33  1  0  0  0  0
 12 13  1  0  0  0  0
 12 18  2  0  0  0  0
 13 14  1  0  0  0  0
 13 15  1  0  0  0  0
 14 34  1  0  0  0  0
 14 35  1  0  0  0  0
 14 36  1  0  0  0  0
 15 16  1  0  0  0  0
 15 17  2  0  0  0  0
 16 37  1  0  0  0  0
 16 38  1  0  0  0  0
 16 39  1  0  0  0  0
 18 19  1  0  0  0  0
 18 40  1  0  0  0  0
 19 41  1  0  0  0  0
M  END
$$$$
