ZINC000000039601      none
 OpenBabel11202420153D

 22 22  0  0  0  0  0  0  0  0999 V2000
   34.5845   40.8401   59.1387 C   0  0  0  0  0  0  0  0  0  0  0  0
   33.3741   40.4370   58.4948 O   0  0  0  0  0  0  0  0  0  0  0  0
   33.3689   39.2121   57.8994 C   0  0  0  0  0  0  0  0  0  0  0  0
   32.9887   38.1010   58.5982 C   0  0  0  0  0  0  0  0  0  0  0  0
   32.9873   36.9074   58.0058 N   0  0  0  0  0  0  0  0  0  0  0  0
   33.3477   36.7659   56.7465 C   0  0  0  0  0  0  0  0  0  0  0  0
   33.3263   35.1628   56.0157 S   0  0  0  0  0  0  0  0  0  0  0  0
   32.7506   34.1827   57.4243 C   0  0  0  0  0  0  0  0  0  0  0  0
   33.7361   37.8365   55.9991 N   0  0  0  0  0  0  0  0  0  0  0  0
   34.1312   37.6518   54.6005 C   0  0  0  0  0  0  0  0  0  0  0  0
   33.7503   39.0693   56.5496 C   0  0  0  0  0  0  0  0  0  0  0  0
   34.0910   40.0401   55.8933 O   0  0  0  0  0  0  0  0  0  0  0  0
   35.3934   40.8660   58.4085 H   0  0  0  0  0  0  0  0  0  0  0  0
   34.8302   40.1297   59.9280 H   0  0  0  0  0  0  0  0  0  0  0  0
   34.4531   41.8323   59.5708 H   0  0  0  0  0  0  0  0  0  0  0  0
   32.6892   38.1904   59.6319 H   0  0  0  0  0  0  0  0  0  0  0  0
   32.6799   33.1347   57.1332 H   0  0  0  0  0  0  0  0  0  0  0  0
   33.4554   34.2839   58.2496 H   0  0  0  0  0  0  0  0  0  0  0  0
   31.7697   34.5395   57.7384 H   0  0  0  0  0  0  0  0  0  0  0  0
   33.2557   37.7536   53.9592 H   0  0  0  0  0  0  0  0  0  0  0  0
   34.8700   38.4058   54.3290 H   0  0  0  0  0  0  0  0  0  0  0  0
   34.5617   36.6587   54.4726 H   0  0  0  0  0  0  0  0  0  0  0  0
  1  2  1  0  0  0  0
  1 13  1  0  0  0  0
  1 14  1  0  0  0  0
  1 15  1  0  0  0  0
  2  3  1  0  0  0  0
  3 11  1  0  0  0  0
  3  4  2  0  0  0  0
  4  5  1  0  0  0  0
  4 16  1  0  0  0  0
  5  6  2  0  0  0  0
  6  7  1  0  0  0  0
  6  9  1  0  0  0  0
  7  8  1  0  0  0  0
  8 17  1  0  0  0  0
  8 18  1  0  0  0  0
  8 19  1  0  0  0  0
  9 10  1  0  0  0  0
  9 11  1  0  0  0  0
 10 20  1  0  0  0  0
 10 21  1  0  0  0  0
 10 22  1  0  0  0  0
 11 12  2  0  0  0  0
M  END
$$$$
