ZINC000000049598      none
 OpenBabel11202420153D

 36 38  0  0  0  0  0  0  0  0999 V2000
   28.8661   39.4652   66.1860 N   0  0  0  0  0  0  0  0  0  0  0  0
   29.9873   38.7988   65.7352 C   0  0  0  0  0  0  0  0  0  0  0  0
   29.8949   37.9604   64.7086 N   0  0  0  0  0  0  0  0  0  0  0  0
   30.9771   37.3215   64.2779 C   0  0  0  0  0  0  0  0  0  0  0  0
   30.8859   36.4473   63.2098 N   0  0  0  0  0  0  0  0  0  0  0  0
   31.0729   36.9156   61.9046 C   0  0  0  0  0  0  0  0  0  0  0  0
   30.0543   36.7922   60.9683 C   0  0  0  0  0  0  0  0  0  0  0  0
   30.2419   37.2559   59.6811 C   0  0  0  0  0  0  0  0  0  0  0  0
   31.4420   37.8430   59.3240 C   0  0  0  0  0  0  0  0  0  0  0  0
   32.4599   37.9626   60.2523 C   0  0  0  0  0  0  0  0  0  0  0  0
   32.2772   37.5054   61.5425 C   0  0  0  0  0  0  0  0  0  0  0  0
   30.6068   35.0948   63.4347 C   0  0  0  0  0  0  0  0  0  0  0  0
   31.0923   34.1295   62.5618 C   0  0  0  0  0  0  0  0  0  0  0  0
   30.8181   32.7951   62.7888 C   0  0  0  0  0  0  0  0  0  0  0  0
   30.0536   32.4203   63.8784 C   0  0  0  0  0  0  0  0  0  0  0  0
   29.5646   33.3793   64.7467 C   0  0  0  0  0  0  0  0  0  0  0  0
   29.8388   34.7151   64.5278 C   0  0  0  0  0  0  0  0  0  0  0  0
   32.1481   37.5194   64.8792 N   0  0  0  0  0  0  0  0  0  0  0  0
   32.2370   38.3578   65.8965 C   0  0  0  0  0  0  0  0  0  0  0  0
   33.5660   38.5836   66.5703 C   0  0  0  0  0  0  0  0  0  0  0  0
   34.5440   37.8017   65.9463 F   0  0  0  0  0  0  0  0  0  0  0  0
   33.9156   39.9346   66.4708 F   0  0  0  0  0  0  0  0  0  0  0  0
   33.4721   38.2242   67.9191 F   0  0  0  0  0  0  0  0  0  0  0  0
   31.1627   38.9954   66.3279 N   0  0  0  0  0  0  0  0  0  0  0  0
   28.0099   39.3218   65.7532 H   0  0  0  0  0  0  0  0  0  0  0  0
   28.9342   40.0772   66.9354 H   0  0  0  0  0  0  0  0  0  0  0  0
   29.1169   36.3338   61.2467 H   0  0  0  0  0  0  0  0  0  0  0  0
   29.4503   37.1604   58.9527 H   0  0  0  0  0  0  0  0  0  0  0  0
   31.5861   38.2047   58.3166 H   0  0  0  0  0  0  0  0  0  0  0  0
   33.3976   38.4175   59.9689 H   0  0  0  0  0  0  0  0  0  0  0  0
   33.0713   37.6026   62.2681 H   0  0  0  0  0  0  0  0  0  0  0  0
   31.6863   34.4219   61.7086 H   0  0  0  0  0  0  0  0  0  0  0  0
   31.1984   32.0438   62.1126 H   0  0  0  0  0  0  0  0  0  0  0  0
   29.8375   31.3765   64.0515 H   0  0  0  0  0  0  0  0  0  0  0  0
   28.9675   33.0833   65.5965 H   0  0  0  0  0  0  0  0  0  0  0  0
   29.4560   35.4635   65.2059 H   0  0  0  0  0  0  0  0  0  0  0  0
  1  2  1  0  0  0  0
  1 25  1  0  0  0  0
  1 26  1  0  0  0  0
  2 24  2  0  0  0  0
  2  3  1  0  0  0  0
  3  4  2  0  0  0  0
  4  5  1  0  0  0  0
  4 18  1  0  0  0  0
  5  6  1  0  0  0  0
  5 12  1  0  0  0  0
  6 11  2  0  0  0  0
  6  7  1  0  0  0  0
  7  8  2  0  0  0  0
  7 27  1  0  0  0  0
  8  9  1  0  0  0  0
  8 28  1  0  0  0  0
  9 10  2  0  0  0  0
  9 29  1  0  0  0  0
 10 11  1  0  0  0  0
 10 30  1  0  0  0  0
 11 31  1  0  0  0  0
 12 17  2  0  0  0  0
 12 13  1  0  0  0  0
 13 14  2  0  0  0  0
 13 32  1  0  0  0  0
 14 15  1  0  0  0  0
 14 33  1  0  0  0  0
 15 16  2  0  0  0  0
 15 34  1  0  0  0  0
 16 17  1  0  0  0  0
 16 35  1  0  0  0  0
 17 36  1  0  0  0  0
 18 19  2  0  0  0  0
 19 20  1  0  0  0  0
 19 24  1  0  0  0  0
 20 21  1  0  0  0  0
 20 22  1  0  0  0  0
 20 23  1  0  0  0  0
M  END
$$$$
