ZINC000000049409      none
 OpenBabel11202420153D

 32 35  0  0  1  0  0  0  0  0999 V2000
   31.1248   37.8886   62.6277 C   0  0  0  0  0  0  0  0  0  0  0  0
   31.2675   36.4852   62.0355 C   0  0  2  0  0  0  0  0  0  0  0  0
   30.7113   35.3353   62.8790 C   0  0  0  0  0  0  0  0  0  0  0  0
   31.3274   34.2387   62.4717 C   0  0  0  0  0  0  0  0  0  0  0  0
   32.2884   34.6677   61.3602 C   0  0  2  0  0  0  0  0  0  0  0  0
   33.1248   33.9976   61.1612 H   0  0  0  0  0  0  0  0  0  0  0  0
   32.6410   36.0181   61.8139 O   0  0  0  0  0  0  0  0  0  0  0  0
   31.3767   34.9904   60.1361 C   0  0  2  0  0  0  0  0  0  0  0  0
   30.7030   34.1836   59.8475 H   0  0  0  0  0  0  0  0  0  0  0  0
   32.2524   35.4846   59.0078 C   0  0  0  0  0  0  0  0  0  0  0  0
   32.9958   34.7934   58.3450 O   0  0  0  0  0  0  0  0  0  0  0  0
   32.0809   36.8020   58.8528 N   0  0  0  0  0  0  0  0  0  0  0  0
   32.7633   37.5461   57.8789 C   0  0  0  0  0  0  0  0  0  0  0  0
   33.0569   38.8838   58.1057 C   0  0  0  0  0  0  0  0  0  0  0  0
   33.7338   39.6133   57.1481 C   0  0  0  0  0  0  0  0  0  0  0  0
   34.1096   39.0142   55.9575 C   0  0  0  0  0  0  0  0  0  0  0  0
   34.7665   39.7310   55.0194 F   0  0  0  0  0  0  0  0  0  0  0  0
   33.8126   37.6814   55.7271 C   0  0  0  0  0  0  0  0  0  0  0  0
   33.1408   36.9473   56.6849 C   0  0  0  0  0  0  0  0  0  0  0  0
   31.1880   37.3481   59.6860 C   0  0  0  0  0  0  0  0  0  0  0  0
   30.8816   38.5207   59.7117 O   0  0  0  0  0  0  0  0  0  0  0  0
   30.6502   36.2858   60.6167 C   0  0  2  0  0  0  0  0  0  0  0  0
   29.5627   36.2118   60.6166 H   0  0  0  0  0  0  0  0  0  0  0  0
   30.0679   38.1402   62.7156 H   0  0  0  0  0  0  0  0  0  0  0  0
   31.5879   37.9155   63.6141 H   0  0  0  0  0  0  0  0  0  0  0  0
   31.6170   38.6100   61.9755 H   0  0  0  0  0  0  0  0  0  0  0  0
   29.9629   35.4060   63.6544 H   0  0  0  0  0  0  0  0  0  0  0  0
   31.1813   33.2373   62.8490 H   0  0  0  0  0  0  0  0  0  0  0  0
   32.7600   39.3526   59.0322 H   0  0  0  0  0  0  0  0  0  0  0  0
   33.9664   40.6530   57.3259 H   0  0  0  0  0  0  0  0  0  0  0  0
   34.1068   37.2157   54.7983 H   0  0  0  0  0  0  0  0  0  0  0  0
   32.9090   35.9079   56.5048 H   0  0  0  0  0  0  0  0  0  0  0  0
  1 24  1  0  0  0  0
  1 25  1  0  0  0  0
  1 26  1  0  0  0  0
  2  1  1  1  0  0  0
  2  7  1  0  0  0  0
  2 22  1  0  0  0  0
  2  3  1  0  0  0  0
  3  4  2  0  0  0  0
  3 27  1  0  0  0  0
  4  5  1  0  0  0  0
  4 28  1  0  0  0  0
  5  6  1  6  0  0  0
  5  7  1  0  0  0  0
  5  8  1  0  0  0  0
  8  9  1  6  0  0  0
  8 22  1  0  0  0  0
  8 10  1  0  0  0  0
 10 11  2  0  0  0  0
 10 12  1  0  0  0  0
 12 13  1  0  0  0  0
 12 20  1  0  0  0  0
 13 19  2  0  0  0  0
 13 14  1  0  0  0  0
 14 15  2  0  0  0  0
 14 29  1  0  0  0  0
 15 16  1  0  0  0  0
 15 30  1  0  0  0  0
 16 17  1  0  0  0  0
 16 18  2  0  0  0  0
 18 19  1  0  0  0  0
 18 31  1  0  0  0  0
 19 32  1  0  0  0  0
 20 21  2  0  0  0  0
 20 22  1  0  0  0  0
 22 23  1  6  0  0  0
M  END
$$$$
