ZINC000000048822      none
 OpenBabel11202420153D

 34 35  0  0  0  0  0  0  0  0999 V2000
   31.4158   37.0525   63.8874 C   0  0  0  0  0  0  0  0  0  0  0  0
   30.3243   36.3420   63.0843 C   0  0  0  0  0  0  0  0  0  0  0  0
   29.8139   35.1292   63.8650 C   0  0  0  0  0  0  0  0  0  0  0  0
   29.1620   37.3132   62.8212 C   0  0  0  0  0  0  0  0  0  0  0  0
   29.6770   38.7065   62.6141 C   0  0  0  0  0  0  0  0  0  0  0  0
   29.1020   39.5928   63.2124 O   0  0  0  0  0  0  0  0  0  0  0  0
   30.6794   39.0665   61.8577 N   0  0  0  0  0  0  0  0  0  0  0  0
   31.2874   38.3101   60.9599 C   0  0  0  0  0  0  0  0  0  0  0  0
   32.3787   38.7752   60.2900 N   0  0  0  0  0  0  0  0  0  0  0  0
   32.6430   38.3311   58.9934 C   0  0  0  0  0  0  0  0  0  0  0  0
   32.6963   39.2400   57.9433 C   0  0  0  0  0  0  0  0  0  0  0  0
   32.9586   38.7976   56.6619 C   0  0  0  0  0  0  0  0  0  0  0  0
   33.1683   37.4507   56.4227 C   0  0  0  0  0  0  0  0  0  0  0  0
   33.5272   36.8493   54.6662 Br  0  0  0  0  0  0  0  0  0  0  0  0
   33.1103   36.5425   57.4653 C   0  0  0  0  0  0  0  0  0  0  0  0
   32.8542   36.9791   58.7498 C   0  0  0  0  0  0  0  0  0  0  0  0
   30.7586   36.9432   60.6862 C   0  0  0  0  0  0  0  0  0  0  0  0
   30.2338   36.6924   59.6275 O   0  0  0  0  0  0  0  0  0  0  0  0
   30.8887   35.8877   61.7455 C   0  0  0  0  0  0  0  0  0  0  0  0
   31.0048   37.3912   64.8384 H   0  0  0  0  0  0  0  0  0  0  0  0
   32.2385   36.3618   64.0725 H   0  0  0  0  0  0  0  0  0  0  0  0
   31.7815   37.9106   63.3235 H   0  0  0  0  0  0  0  0  0  0  0  0
   29.0427   34.6222   63.2850 H   0  0  0  0  0  0  0  0  0  0  0  0
   30.6398   34.4424   64.0501 H   0  0  0  0  0  0  0  0  0  0  0  0
   29.3954   35.4591   64.8159 H   0  0  0  0  0  0  0  0  0  0  0  0
   28.4849   37.3034   63.6754 H   0  0  0  0  0  0  0  0  0  0  0  0
   28.6215   36.9934   61.9304 H   0  0  0  0  0  0  0  0  0  0  0  0
   32.9718   39.4149   60.7139 H   0  0  0  0  0  0  0  0  0  0  0  0
   32.5324   40.2911   58.1294 H   0  0  0  0  0  0  0  0  0  0  0  0
   32.9997   39.5034   55.8455 H   0  0  0  0  0  0  0  0  0  0  0  0
   33.2700   35.4915   57.2746 H   0  0  0  0  0  0  0  0  0  0  0  0
   32.8133   36.2703   59.5637 H   0  0  0  0  0  0  0  0  0  0  0  0
   31.9422   35.6387   61.8721 H   0  0  0  0  0  0  0  0  0  0  0  0
   30.3519   34.9967   61.4196 H   0  0  0  0  0  0  0  0  0  0  0  0
  1  2  1  0  0  0  0
  1 20  1  0  0  0  0
  1 21  1  0  0  0  0
  1 22  1  0  0  0  0
  2 19  1  0  0  0  0
  2  3  1  0  0  0  0
  2  4  1  0  0  0  0
  3 23  1  0  0  0  0
  3 24  1  0  0  0  0
  3 25  1  0  0  0  0
  4  5  1  0  0  0  0
  4 26  1  0  0  0  0
  4 27  1  0  0  0  0
  5  6  2  0  0  0  0
  5  7  1  0  0  0  0
  7  8  2  0  0  0  0
  8  9  1  0  0  0  0
  8 17  1  0  0  0  0
  9 10  1  0  0  0  0
  9 28  1  0  0  0  0
 10 16  2  0  0  0  0
 10 11  1  0  0  0  0
 11 12  2  0  0  0  0
 11 29  1  0  0  0  0
 12 13  1  0  0  0  0
 12 30  1  0  0  0  0
 13 14  1  0  0  0  0
 13 15  2  0  0  0  0
 15 16  1  0  0  0  0
 15 31  1  0  0  0  0
 16 32  1  0  0  0  0
 17 18  2  0  0  0  0
 17 19  1  0  0  0  0
 19 33  1  0  0  0  0
 19 34  1  0  0  0  0
M  END
$$$$
