ZINC000000001928      none
 OpenBabel11202420153D

 34 36  0  0  0  0  0  0  0  0999 V2000
   31.3238   32.9701   59.2631 C   0  0  0  0  0  0  0  0  0  0  0  0
   31.8626   33.3294   57.9892 O   0  0  0  0  0  0  0  0  0  0  0  0
   32.3217   34.5916   57.8518 C   0  0  0  0  0  0  0  0  0  0  0  0
   32.3180   35.5532   58.8161 C   0  0  0  0  0  0  0  0  0  0  0  0
   32.8867   36.7173   58.2724 C   0  0  0  0  0  0  0  0  0  0  0  0
   33.0483   37.7757   58.8550 O   0  0  0  0  0  0  0  0  0  0  0  0
   33.2223   36.4572   56.9931 N   0  0  0  0  0  0  0  0  0  0  0  0
   33.8169   37.3540   56.0998 C   0  0  0  0  0  0  0  0  0  0  0  0
   34.6596   36.8850   55.1002 C   0  0  0  0  0  0  0  0  0  0  0  0
   35.2407   37.7727   54.2162 C   0  0  0  0  0  0  0  0  0  0  0  0
   34.9929   39.1282   54.3319 C   0  0  0  0  0  0  0  0  0  0  0  0
   34.1592   39.5990   55.3298 C   0  0  0  0  0  0  0  0  0  0  0  0
   33.5706   38.7161   56.2136 C   0  0  0  0  0  0  0  0  0  0  0  0
   32.8700   35.1297   56.7164 N   0  0  0  0  0  0  0  0  0  0  0  0
   33.0509   34.4682   55.4979 C   0  0  0  0  0  0  0  0  0  0  0  0
   32.4327   34.9446   54.3488 C   0  0  0  0  0  0  0  0  0  0  0  0
   32.6187   34.2925   53.1457 C   0  0  0  0  0  0  0  0  0  0  0  0
   33.4095   33.1595   53.0865 C   0  0  0  0  0  0  0  0  0  0  0  0
   34.0214   32.6792   54.2298 C   0  0  0  0  0  0  0  0  0  0  0  0
   33.8447   33.3302   55.4349 C   0  0  0  0  0  0  0  0  0  0  0  0
   30.4719   33.6106   59.4910 H   0  0  0  0  0  0  0  0  0  0  0  0
   31.0003   31.9296   59.2401 H   0  0  0  0  0  0  0  0  0  0  0  0
   32.0885   33.0962   60.0296 H   0  0  0  0  0  0  0  0  0  0  0  0
   31.9471   35.4394   59.8240 H   0  0  0  0  0  0  0  0  0  0  0  0
   34.8570   35.8269   55.0121 H   0  0  0  0  0  0  0  0  0  0  0  0
   35.8923   37.4082   53.4358 H   0  0  0  0  0  0  0  0  0  0  0  0
   35.4518   39.8207   53.6418 H   0  0  0  0  0  0  0  0  0  0  0  0
   33.9680   40.6583   55.4177 H   0  0  0  0  0  0  0  0  0  0  0  0
   32.9190   39.0844   56.9922 H   0  0  0  0  0  0  0  0  0  0  0  0
   31.8111   35.8264   54.3953 H   0  0  0  0  0  0  0  0  0  0  0  0
   32.1424   34.6651   52.2509 H   0  0  0  0  0  0  0  0  0  0  0  0
   33.5494   32.6487   52.1453 H   0  0  0  0  0  0  0  0  0  0  0  0
   34.6385   31.7943   54.1801 H   0  0  0  0  0  0  0  0  0  0  0  0
   34.3234   32.9549   56.3274 H   0  0  0  0  0  0  0  0  0  0  0  0
  1  2  1  0  0  0  0
  1 21  1  0  0  0  0
  1 22  1  0  0  0  0
  1 23  1  0  0  0  0
  2  3  1  0  0  0  0
  3 14  1  0  0  0  0
  3  4  2  0  0  0  0
  4  5  1  0  0  0  0
  4 24  1  0  0  0  0
  5  6  2  0  0  0  0
  5  7  1  0  0  0  0
  7  8  1  0  0  0  0
  7 14  1  0  0  0  0
  8 13  2  0  0  0  0
  8  9  1  0  0  0  0
  9 10  2  0  0  0  0
  9 25  1  0  0  0  0
 10 11  1  0  0  0  0
 10 26  1  0  0  0  0
 11 12  2  0  0  0  0
 11 27  1  0  0  0  0
 12 13  1  0  0  0  0
 12 28  1  0  0  0  0
 13 29  1  0  0  0  0
 14 15  1  0  0  0  0
 15 20  2  0  0  0  0
 15 16  1  0  0  0  0
 16 17  2  0  0  0  0
 16 30  1  0  0  0  0
 17 18  1  0  0  0  0
 17 31  1  0  0  0  0
 18 19  2  0  0  0  0
 18 32  1  0  0  0  0
 19 20  1  0  0  0  0
 19 33  1  0  0  0  0
 20 34  1  0  0  0  0
M  END
$$$$
