ZINC000000049854      none
 OpenBabel11202420153D

 29 31  0  0  0  0  0  0  0  0999 V2000
   32.3300   33.4976   58.5925 C   0  0  0  0  0  0  0  0  0  0  0  0
   32.5707   34.8671   58.0112 C   0  0  0  0  0  0  0  0  0  0  0  0
   32.9674   34.9852   56.6874 C   0  0  0  0  0  0  0  0  0  0  0  0
   33.1853   36.2388   56.1634 C   0  0  0  0  0  0  0  0  0  0  0  0
   33.0006   37.3603   56.9816 C   0  0  0  0  0  0  0  0  0  0  0  0
   32.5971   37.1608   58.3123 C   0  0  0  0  0  0  0  0  0  0  0  0
   32.3540   38.5449   59.3752 S   0  0  0  0  0  0  0  0  0  0  0  0
   31.8744   37.7148   60.8536 C   0  0  0  0  0  0  0  0  0  0  0  0
   32.8365   37.3275   61.7782 C   0  0  0  0  0  0  0  0  0  0  0  0
   32.4570   36.6776   62.9359 C   0  0  0  0  0  0  0  0  0  0  0  0
   31.1211   36.4120   63.1757 C   0  0  0  0  0  0  0  0  0  0  0  0
   30.1613   36.7913   62.2550 C   0  0  0  0  0  0  0  0  0  0  0  0
   30.5331   37.4463   61.0977 C   0  0  0  0  0  0  0  0  0  0  0  0
   32.4041   35.9314   58.7708 N   0  0  0  0  0  0  0  0  0  0  0  0
   33.2964   38.5572   56.1859 C   0  0  0  0  0  0  0  0  0  0  0  0
   33.2322   39.6986   56.5982 O   0  0  0  0  0  0  0  0  0  0  0  0
   33.6482   38.2106   54.9350 O   0  0  0  0  0  0  0  0  0  0  0  0
   33.6095   36.7610   54.8170 C   0  0  0  0  0  0  0  0  0  0  0  0
   33.2565   33.1177   59.0232 H   0  0  0  0  0  0  0  0  0  0  0  0
   31.5677   33.5615   59.3690 H   0  0  0  0  0  0  0  0  0  0  0  0
   31.9917   32.8234   57.8058 H   0  0  0  0  0  0  0  0  0  0  0  0
   33.1036   34.1052   56.0762 H   0  0  0  0  0  0  0  0  0  0  0  0
   33.8800   37.5343   61.5915 H   0  0  0  0  0  0  0  0  0  0  0  0
   33.2043   36.3766   63.6551 H   0  0  0  0  0  0  0  0  0  0  0  0
   30.8272   35.9032   64.0818 H   0  0  0  0  0  0  0  0  0  0  0  0
   29.1195   36.5784   62.4433 H   0  0  0  0  0  0  0  0  0  0  0  0
   29.7828   37.7456   60.3808 H   0  0  0  0  0  0  0  0  0  0  0  0
   32.8864   36.4664   54.0565 H   0  0  0  0  0  0  0  0  0  0  0  0
   34.5979   36.3796   54.5611 H   0  0  0  0  0  0  0  0  0  0  0  0
  1  2  1  0  0  0  0
  1 19  1  0  0  0  0
  1 20  1  0  0  0  0
  1 21  1  0  0  0  0
  2 14  2  0  0  0  0
  2  3  1  0  0  0  0
  3  4  2  0  0  0  0
  3 22  1  0  0  0  0
  4 18  1  0  0  0  0
  4  5  1  0  0  0  0
  5  6  2  0  0  0  0
  5 15  1  0  0  0  0
  6  7  1  0  0  0  0
  6 14  1  0  0  0  0
  7  8  1  0  0  0  0
  8 13  2  0  0  0  0
  8  9  1  0  0  0  0
  9 10  2  0  0  0  0
  9 23  1  0  0  0  0
 10 11  1  0  0  0  0
 10 24  1  0  0  0  0
 11 12  2  0  0  0  0
 11 25  1  0  0  0  0
 12 13  1  0  0  0  0
 12 26  1  0  0  0  0
 13 27  1  0  0  0  0
 15 16  2  0  0  0  0
 15 17  1  0  0  0  0
 17 18  1  0  0  0  0
 18 28  1  0  0  0  0
 18 29  1  0  0  0  0
M  END
$$$$
