ZINC000000034412      none
 OpenBabel11202420153D

 33 35  0  0  0  0  0  0  0  0999 V2000
   30.6095   38.2929   62.1699 C   0  0  0  0  0  0  0  0  0  0  0  0
   30.8347   37.1095   61.4014 O   0  0  0  0  0  0  0  0  0  0  0  0
   31.5752   37.2397   60.2737 C   0  0  0  0  0  0  0  0  0  0  0  0
   32.0527   38.4298   59.9415 N   0  0  0  0  0  0  0  0  0  0  0  0
   32.7787   38.6218   58.8587 C   0  0  0  0  0  0  0  0  0  0  0  0
   33.0767   37.5605   58.0064 C   0  0  0  0  0  0  0  0  0  0  0  0
   33.8315   37.4209   56.7586 C   0  0  0  0  0  0  0  0  0  0  0  0
   33.7632   36.1281   56.4046 C   0  0  0  0  0  0  0  0  0  0  0  0
   33.0254   35.4309   57.3261 N   0  0  0  0  0  0  0  0  0  0  0  0
   32.7419   33.9949   57.2635 C   0  0  0  0  0  0  0  0  0  0  0  0
   33.3858   33.4091   56.0333 C   0  0  0  0  0  0  0  0  0  0  0  0
   32.6841   33.3589   54.8434 C   0  0  0  0  0  0  0  0  0  0  0  0
   33.2764   32.8259   53.7137 C   0  0  0  0  0  0  0  0  0  0  0  0
   34.5665   32.3335   53.7768 C   0  0  0  0  0  0  0  0  0  0  0  0
   35.2663   32.3788   54.9680 C   0  0  0  0  0  0  0  0  0  0  0  0
   34.6758   32.9167   56.0963 C   0  0  0  0  0  0  0  0  0  0  0  0
   32.5941   36.2727   58.3117 C   0  0  0  0  0  0  0  0  0  0  0  0
   31.8278   36.1130   59.4818 C   0  0  0  0  0  0  0  0  0  0  0  0
   31.3135   34.8284   59.8506 C   0  0  0  0  0  0  0  0  0  0  0  0
   30.9055   33.8094   60.1431 N   0  0  0  0  0  0  0  0  0  0  0  0
   31.5660   38.7038   62.4933 H   0  0  0  0  0  0  0  0  0  0  0  0
   30.0862   39.0287   61.5591 H   0  0  0  0  0  0  0  0  0  0  0  0
   30.0046   38.0495   63.0433 H   0  0  0  0  0  0  0  0  0  0  0  0
   33.1461   39.6112   58.6296 H   0  0  0  0  0  0  0  0  0  0  0  0
   34.3443   38.2077   56.2254 H   0  0  0  0  0  0  0  0  0  0  0  0
   34.2212   35.7007   55.5249 H   0  0  0  0  0  0  0  0  0  0  0  0
   33.1432   33.5062   58.1513 H   0  0  0  0  0  0  0  0  0  0  0  0
   31.6640   33.8390   57.2187 H   0  0  0  0  0  0  0  0  0  0  0  0
   31.6745   33.7395   54.7952 H   0  0  0  0  0  0  0  0  0  0  0  0
   32.7296   32.7901   52.7830 H   0  0  0  0  0  0  0  0  0  0  0  0
   35.0277   31.9129   52.8952 H   0  0  0  0  0  0  0  0  0  0  0  0
   36.2741   31.9938   55.0173 H   0  0  0  0  0  0  0  0  0  0  0  0
   35.2225   32.9518   57.0272 H   0  0  0  0  0  0  0  0  0  0  0  0
  1  2  1  0  0  0  0
  1 21  1  0  0  0  0
  1 22  1  0  0  0  0
  1 23  1  0  0  0  0
  2  3  1  0  0  0  0
  3 18  2  0  0  0  0
  3  4  1  0  0  0  0
  4  5  2  0  0  0  0
  5  6  1  0  0  0  0
  5 24  1  0  0  0  0
  6 17  2  0  0  0  0
  6  7  1  0  0  0  0
  7  8  2  0  0  0  0
  7 25  1  0  0  0  0
  8  9  1  0  0  0  0
  8 26  1  0  0  0  0
  9 10  1  0  0  0  0
  9 17  1  0  0  0  0
 10 11  1  0  0  0  0
 10 27  1  0  0  0  0
 10 28  1  0  0  0  0
 11 16  2  0  0  0  0
 11 12  1  0  0  0  0
 12 13  2  0  0  0  0
 12 29  1  0  0  0  0
 13 14  1  0  0  0  0
 13 30  1  0  0  0  0
 14 15  2  0  0  0  0
 14 31  1  0  0  0  0
 15 16  1  0  0  0  0
 15 32  1  0  0  0  0
 16 33  1  0  0  0  0
 17 18  1  0  0  0  0
 18 19  1  0  0  0  0
 19 20  3  0  0  0  0
M  END
$$$$
