ZINC000000037175      none
 OpenBabel11202420153D

 24 25  0  0  0  0  0  0  0  0999 V2000
   34.1360   36.8460   51.9375 C   0  0  0  0  0  0  0  0  0  0  0  0
   33.7825   35.7441   52.9028 C   0  0  0  0  0  0  0  0  0  0  0  0
   33.4297   34.4972   52.4295 C   0  0  0  0  0  0  0  0  0  0  0  0
   33.1043   33.4845   53.3143 C   0  0  0  0  0  0  0  0  0  0  0  0
   33.1307   33.7140   54.6789 C   0  0  0  0  0  0  0  0  0  0  0  0
   33.4815   34.9556   55.1659 C   0  0  0  0  0  0  0  0  0  0  0  0
   33.8168   35.9810   54.2786 C   0  0  0  0  0  0  0  0  0  0  0  0
   34.1999   37.3111   54.7928 C   0  0  0  0  0  0  0  0  0  0  0  0
   34.9727   38.0059   54.1639 O   0  0  0  0  0  0  0  0  0  0  0  0
   33.6921   37.7543   55.9600 N   0  0  0  0  0  0  0  0  0  0  0  0
   33.9634   38.9522   56.5509 C   0  0  0  0  0  0  0  0  0  0  0  0
   33.2546   39.0095   57.7002 C   0  0  0  0  0  0  0  0  0  0  0  0
   33.2427   40.3297   58.8275 Cl  0  0  0  0  0  0  0  0  0  0  0  0
   32.5344   37.8124   57.8245 C   0  0  0  0  0  0  0  0  0  0  0  0
   32.7958   37.0635   56.7858 N   0  0  0  0  0  0  0  0  0  0  0  0
   33.2621   37.4751   51.7684 H   0  0  0  0  0  0  0  0  0  0  0  0
   34.4590   36.4109   50.9917 H   0  0  0  0  0  0  0  0  0  0  0  0
   34.9426   37.4493   52.3543 H   0  0  0  0  0  0  0  0  0  0  0  0
   33.4069   34.3113   51.3659 H   0  0  0  0  0  0  0  0  0  0  0  0
   32.8281   32.5105   52.9382 H   0  0  0  0  0  0  0  0  0  0  0  0
   32.8757   32.9190   55.3639 H   0  0  0  0  0  0  0  0  0  0  0  0
   33.5018   35.1332   56.2311 H   0  0  0  0  0  0  0  0  0  0  0  0
   34.6229   39.7174   56.1690 H   0  0  0  0  0  0  0  0  0  0  0  0
   31.8757   37.5534   58.6402 H   0  0  0  0  0  0  0  0  0  0  0  0
  1  2  1  0  0  0  0
  1 16  1  0  0  0  0
  1 17  1  0  0  0  0
  1 18  1  0  0  0  0
  2  7  2  0  0  0  0
  2  3  1  0  0  0  0
  3  4  2  0  0  0  0
  3 19  1  0  0  0  0
  4  5  1  0  0  0  0
  4 20  1  0  0  0  0
  5  6  2  0  0  0  0
  5 21  1  0  0  0  0
  6  7  1  0  0  0  0
  6 22  1  0  0  0  0
  7  8  1  0  0  0  0
  8  9  2  0  0  0  0
  8 10  1  0  0  0  0
 10 15  1  0  0  0  0
 10 11  1  0  0  0  0
 11 12  2  0  0  0  0
 11 23  1  0  0  0  0
 12 13  1  0  0  0  0
 12 14  1  0  0  0  0
 14 15  2  0  0  0  0
 14 24  1  0  0  0  0
M  END
$$$$
