ZINC000000024608      none
 OpenBabel11202420153D

 28 29  0  0  1  0  0  0  0  0999 V2000
   33.1515   36.4104   52.8633 C   0  0  0  0  0  0  0  0  0  0  0  0
   34.0101   35.8701   54.0086 C   0  0  1  0  0  0  0  0  0  0  0  0
   35.0626   35.9253   53.7311 H   0  0  0  0  0  0  0  0  0  0  0  0
   33.7732   36.6960   55.2468 C   0  0  0  0  0  0  0  0  0  0  0  0
   34.0019   38.0125   55.3460 C   0  0  0  0  0  0  0  0  0  0  0  0
   33.6327   38.3898   56.7156 C   0  0  0  0  0  0  0  0  0  0  0  0
   33.6373   39.5856   57.4322 C   0  0  0  0  0  0  0  0  0  0  0  0
   33.2174   39.5976   58.7335 C   0  0  0  0  0  0  0  0  0  0  0  0
   32.7874   38.4282   59.3437 C   0  0  0  0  0  0  0  0  0  0  0  0
   32.7762   37.2363   58.6511 C   0  0  0  0  0  0  0  0  0  0  0  0
   33.1988   37.2022   57.3280 C   0  0  0  0  0  0  0  0  0  0  0  0
   33.2962   36.2196   56.4101 O   0  0  0  0  0  0  0  0  0  0  0  0
   33.6477   34.4758   54.2750 N   0  0  0  0  0  0  0  0  0  0  0  0
   32.6355   33.8486   53.5088 O   0  0  0  0  0  0  0  0  0  0  0  0
   34.2777   33.7900   55.2492 C   0  0  0  0  0  0  0  0  0  0  0  0
   33.6300   32.8110   55.9113 N   0  0  0  0  0  0  0  0  0  0  0  0
   35.4307   34.0546   55.5309 O   0  0  0  0  0  0  0  0  0  0  0  0
   33.4210   37.4477   52.6651 H   0  0  0  0  0  0  0  0  0  0  0  0
   33.3228   35.8130   51.9678 H   0  0  0  0  0  0  0  0  0  0  0  0
   32.0989   36.3552   53.1410 H   0  0  0  0  0  0  0  0  0  0  0  0
   34.3816   38.6648   54.5736 H   0  0  0  0  0  0  0  0  0  0  0  0
   33.9711   40.4985   56.9617 H   0  0  0  0  0  0  0  0  0  0  0  0
   33.2203   40.5234   59.2897 H   0  0  0  0  0  0  0  0  0  0  0  0
   32.4583   38.4517   60.3721 H   0  0  0  0  0  0  0  0  0  0  0  0
   32.4401   36.3315   59.1357 H   0  0  0  0  0  0  0  0  0  0  0  0
   32.4119   32.9566   53.8075 H   0  0  0  0  0  0  0  0  0  0  0  0
   32.7364   32.5502   55.6385 H   0  0  0  0  0  0  0  0  0  0  0  0
   34.0574   32.3674   56.6606 H   0  0  0  0  0  0  0  0  0  0  0  0
  1  2  1  0  0  0  0
  1 18  1  0  0  0  0
  1 19  1  0  0  0  0
  1 20  1  0  0  0  0
  2  3  1  6  0  0  0
  2  4  1  0  0  0  0
  2 13  1  0  0  0  0
  4 12  1  0  0  0  0
  4  5  2  0  0  0  0
  5  6  1  0  0  0  0
  5 21  1  0  0  0  0
  6 11  2  0  0  0  0
  6  7  1  0  0  0  0
  7  8  2  0  0  0  0
  7 22  1  0  0  0  0
  8  9  1  0  0  0  0
  8 23  1  0  0  0  0
  9 10  2  0  0  0  0
  9 24  1  0  0  0  0
 10 11  1  0  0  0  0
 10 25  1  0  0  0  0
 11 12  1  0  0  0  0
 13 14  1  0  0  0  0
 13 15  1  0  0  0  0
 14 26  1  0  0  0  0
 15 16  1  0  0  0  0
 15 17  2  0  0  0  0
 16 27  1  0  0  0  0
 16 28  1  0  0  0  0
M  END
$$$$
