ZINC000000045644      none
 OpenBabel11202420153D

 32 33  0  0  0  0  0  0  0  0999 V2000
   31.1069   34.5650   60.1777 C   0  0  0  0  0  0  0  0  0  0  0  0
   31.4368   35.8630   59.6168 O   0  0  0  0  0  0  0  0  0  0  0  0
   32.4303   35.9019   58.7071 C   0  0  0  0  0  0  0  0  0  0  0  0
   33.0051   34.8790   58.3911 O   0  0  0  0  0  0  0  0  0  0  0  0
   32.8194   37.1848   58.0953 C   0  0  0  0  0  0  0  0  0  0  0  0
   32.6753   38.3771   58.8102 C   0  0  0  0  0  0  0  0  0  0  0  0
   33.0406   39.5732   58.2323 C   0  0  0  0  0  0  0  0  0  0  0  0
   33.5563   39.6007   56.9462 C   0  0  0  0  0  0  0  0  0  0  0  0
   33.6994   38.4324   56.2255 C   0  0  0  0  0  0  0  0  0  0  0  0
   33.3367   37.2171   56.7910 C   0  0  0  0  0  0  0  0  0  0  0  0
   33.4858   36.0371   56.0685 N   0  0  0  0  0  0  0  0  0  0  0  0
   33.3860   36.0528   54.7245 C   0  0  0  0  0  0  0  0  0  0  0  0
   33.1655   37.0980   54.1433 O   0  0  0  0  0  0  0  0  0  0  0  0
   33.5441   34.8036   53.9594 C   0  0  0  0  0  0  0  0  0  0  0  0
   33.8057   33.4599   54.4958 C   0  0  0  0  0  0  0  0  0  0  0  0
   33.8709   32.6444   53.4323 C   0  0  0  0  0  0  0  0  0  0  0  0
   33.6751   33.3621   52.3152 O   0  0  0  0  0  0  0  0  0  0  0  0
   33.4723   34.6510   52.6054 C   0  0  0  0  0  0  0  0  0  0  0  0
   33.2119   35.7491   51.6070 C   0  0  0  0  0  0  0  0  0  0  0  0
   30.7983   33.8915   59.3781 H   0  0  0  0  0  0  0  0  0  0  0  0
   31.9817   34.1539   60.6815 H   0  0  0  0  0  0  0  0  0  0  0  0
   30.2932   34.6751   60.8944 H   0  0  0  0  0  0  0  0  0  0  0  0
   32.2776   38.3608   59.8141 H   0  0  0  0  0  0  0  0  0  0  0  0
   32.9286   40.4936   58.7859 H   0  0  0  0  0  0  0  0  0  0  0  0
   33.8444   40.5428   56.5036 H   0  0  0  0  0  0  0  0  0  0  0  0
   34.0979   38.4630   55.2222 H   0  0  0  0  0  0  0  0  0  0  0  0
   33.6617   35.2034   56.5321 H   0  0  0  0  0  0  0  0  0  0  0  0
   33.9218   33.1852   55.5338 H   0  0  0  0  0  0  0  0  0  0  0  0
   34.0518   31.5803   53.4692 H   0  0  0  0  0  0  0  0  0  0  0  0
   34.1594   36.1872   51.2931 H   0  0  0  0  0  0  0  0  0  0  0  0
   32.6972   35.3368   50.7392 H   0  0  0  0  0  0  0  0  0  0  0  0
   32.5905   36.5180   52.0664 H   0  0  0  0  0  0  0  0  0  0  0  0
  1  2  1  0  0  0  0
  1 20  1  0  0  0  0
  1 21  1  0  0  0  0
  1 22  1  0  0  0  0
  2  3  1  0  0  0  0
  3  4  2  0  0  0  0
  3  5  1  0  0  0  0
  5 10  2  0  0  0  0
  5  6  1  0  0  0  0
  6  7  2  0  0  0  0
  6 23  1  0  0  0  0
  7  8  1  0  0  0  0
  7 24  1  0  0  0  0
  8  9  2  0  0  0  0
  8 25  1  0  0  0  0
  9 10  1  0  0  0  0
  9 26  1  0  0  0  0
 10 11  1  0  0  0  0
 11 12  1  0  0  0  0
 11 27  1  0  0  0  0
 12 13  2  0  0  0  0
 12 14  1  0  0  0  0
 14 18  2  0  0  0  0
 14 15  1  0  0  0  0
 15 16  2  0  0  0  0
 15 28  1  0  0  0  0
 16 17  1  0  0  0  0
 16 29  1  0  0  0  0
 17 18  1  0  0  0  0
 18 19  1  0  0  0  0
 19 30  1  0  0  0  0
 19 31  1  0  0  0  0
 19 32  1  0  0  0  0
M  END
$$$$
