ZINC000000023550      none
 OpenBabel11202420153D

 21 22  0  0  0  0  0  0  0  0999 V2000
   31.4354   33.4795   59.9777 C   0  0  0  0  0  0  0  0  0  0  0  0
   32.2482   34.2258   58.5430 S   0  0  0  0  0  0  0  0  0  0  0  0
   32.1879   35.9247   59.0068 C   0  0  0  0  0  0  0  0  0  0  0  0
   31.6377   36.2801   60.1533 N   0  0  0  0  0  0  0  0  0  0  0  0
   31.5662   37.5433   60.5510 C   0  0  0  0  0  0  0  0  0  0  0  0
   32.0699   38.5639   59.8049 C   0  0  0  0  0  0  0  0  0  0  0  0
   32.6676   38.2686   58.5639 C   0  0  0  0  0  0  0  0  0  0  0  0
   33.1916   39.2671   57.7314 C   0  0  0  0  0  0  0  0  0  0  0  0
   33.7576   38.9193   56.5413 C   0  0  0  0  0  0  0  0  0  0  0  0
   33.8233   37.5870   56.1411 C   0  0  0  0  0  0  0  0  0  0  0  0
   33.3232   36.5916   56.9270 C   0  0  0  0  0  0  0  0  0  0  0  0
   32.7288   36.9130   58.1536 C   0  0  0  0  0  0  0  0  0  0  0  0
   30.4249   33.8775   60.0707 H   0  0  0  0  0  0  0  0  0  0  0  0
   31.3893   32.3982   59.8474 H   0  0  0  0  0  0  0  0  0  0  0  0
   32.0023   33.7129   60.8789 H   0  0  0  0  0  0  0  0  0  0  0  0
   31.1032   37.7679   61.5005 H   0  0  0  0  0  0  0  0  0  0  0  0
   31.9997   39.5844   60.1516 H   0  0  0  0  0  0  0  0  0  0  0  0
   33.1474   40.3039   58.0308 H   0  0  0  0  0  0  0  0  0  0  0  0
   34.1615   39.6882   55.8994 H   0  0  0  0  0  0  0  0  0  0  0  0
   34.2771   37.3385   55.1931 H   0  0  0  0  0  0  0  0  0  0  0  0
   33.3811   35.5627   56.6038 H   0  0  0  0  0  0  0  0  0  0  0  0
  1  2  1  0  0  0  0
  1 13  1  0  0  0  0
  1 14  1  0  0  0  0
  1 15  1  0  0  0  0
  2  3  1  0  0  0  0
  3 12  2  0  0  0  0
  3  4  1  0  0  0  0
  4  5  2  0  0  0  0
  5  6  1  0  0  0  0
  5 16  1  0  0  0  0
  6  7  2  0  0  0  0
  6 17  1  0  0  0  0
  7 12  1  0  0  0  0
  7  8  1  0  0  0  0
  8  9  2  0  0  0  0
  8 18  1  0  0  0  0
  9 10  1  0  0  0  0
  9 19  1  0  0  0  0
 10 11  2  0  0  0  0
 10 20  1  0  0  0  0
 11 12  1  0  0  0  0
 11 21  1  0  0  0  0
M  END
$$$$
