ZINC000000038774      none
 OpenBabel11202420153D

 40 42  0  0  0  0  0  0  0  0999 V2000
   31.8958   33.7049   56.5649 C   0  0  0  0  0  0  0  0  0  0  0  0
   32.2446   35.1142   56.5413 O   0  0  0  0  0  0  0  0  0  0  0  0
   32.6655   35.6603   57.7007 C   0  0  0  0  0  0  0  0  0  0  0  0
   32.7385   34.9763   58.7039 O   0  0  0  0  0  0  0  0  0  0  0  0
   33.0343   37.0765   57.7516 C   0  0  0  0  0  0  0  0  0  0  0  0
   32.8939   37.8493   58.8682 C   0  0  0  0  0  0  0  0  0  0  0  0
   32.3913   37.3991   60.0791 N   0  0  0  0  0  0  0  0  0  0  0  0
   31.1405   36.9019   60.1465 C   0  0  0  0  0  0  0  0  0  0  0  0
   30.4546   36.8484   59.1477 O   0  0  0  0  0  0  0  0  0  0  0  0
   30.5942   36.4123   61.4629 C   0  0  0  0  0  0  0  0  0  0  0  0
   31.4147   35.3504   61.9539 O   0  0  0  0  0  0  0  0  0  0  0  0
   30.8076   34.4041   62.7173 C   0  0  0  0  0  0  0  0  0  0  0  0
   31.2842   33.1012   62.7182 C   0  0  0  0  0  0  0  0  0  0  0  0
   30.6657   32.1412   63.4954 C   0  0  0  0  0  0  0  0  0  0  0  0
   29.5726   32.4780   64.2722 C   0  0  0  0  0  0  0  0  0  0  0  0
   29.0953   33.7756   64.2728 C   0  0  0  0  0  0  0  0  0  0  0  0
   29.7104   34.7393   63.4973 C   0  0  0  0  0  0  0  0  0  0  0  0
   33.4260   39.4376   58.5735 S   0  0  0  0  0  0  0  0  0  0  0  0
   33.8479   39.0758   56.9000 C   0  0  0  0  0  0  0  0  0  0  0  0
   33.5853   37.8046   56.6116 C   0  0  0  0  0  0  0  0  0  0  0  0
   33.9543   37.5053   55.1613 C   0  0  0  0  0  0  0  0  0  0  0  0
   34.8886   38.6583   54.7435 C   0  0  0  0  0  0  0  0  0  0  0  0
   34.4254   39.7896   55.6835 C   0  0  0  0  0  0  0  0  0  0  0  0
   31.5745   33.3936   55.5709 H   0  0  0  0  0  0  0  0  0  0  0  0
   32.7653   33.1204   56.8653 H   0  0  0  0  0  0  0  0  0  0  0  0
   31.0857   33.5431   57.2759 H   0  0  0  0  0  0  0  0  0  0  0  0
   32.9400   37.4420   60.8779 H   0  0  0  0  0  0  0  0  0  0  0  0
   29.5762   36.0494   61.3213 H   0  0  0  0  0  0  0  0  0  0  0  0
   30.5910   37.2313   62.1822 H   0  0  0  0  0  0  0  0  0  0  0  0
   32.1355   32.8367   62.1083 H   0  0  0  0  0  0  0  0  0  0  0  0
   31.0364   31.1268   63.4964 H   0  0  0  0  0  0  0  0  0  0  0  0
   29.0905   31.7260   64.8792 H   0  0  0  0  0  0  0  0  0  0  0  0
   28.2412   34.0361   64.8802 H   0  0  0  0  0  0  0  0  0  0  0  0
   29.3373   35.7528   63.4981 H   0  0  0  0  0  0  0  0  0  0  0  0
   34.4758   36.5507   55.0921 H   0  0  0  0  0  0  0  0  0  0  0  0
   33.0606   37.4944   54.5373 H   0  0  0  0  0  0  0  0  0  0  0  0
   35.9320   38.4014   54.9264 H   0  0  0  0  0  0  0  0  0  0  0  0
   34.7324   38.9288   53.6993 H   0  0  0  0  0  0  0  0  0  0  0  0
   33.6586   40.3945   55.1995 H   0  0  0  0  0  0  0  0  0  0  0  0
   35.2720   40.4110   55.9750 H   0  0  0  0  0  0  0  0  0  0  0  0
  1  2  1  0  0  0  0
  1 24  1  0  0  0  0
  1 25  1  0  0  0  0
  1 26  1  0  0  0  0
  2  3  1  0  0  0  0
  3  4  2  0  0  0  0
  3  5  1  0  0  0  0
  5 20  1  0  0  0  0
  5  6  2  0  0  0  0
  6  7  1  0  0  0  0
  6 18  1  0  0  0  0
  7  8  1  0  0  0  0
  7 27  1  0  0  0  0
  8  9  2  0  0  0  0
  8 10  1  0  0  0  0
 10 11  1  0  0  0  0
 10 28  1  0  0  0  0
 10 29  1  0  0  0  0
 11 12  1  0  0  0  0
 12 17  2  0  0  0  0
 12 13  1  0  0  0  0
 13 14  2  0  0  0  0
 13 30  1  0  0  0  0
 14 15  1  0  0  0  0
 14 31  1  0  0  0  0
 15 16  2  0  0  0  0
 15 32  1  0  0  0  0
 16 17  1  0  0  0  0
 16 33  1  0  0  0  0
 17 34  1  0  0  0  0
 18 19  1  0  0  0  0
 19 23  1  0  0  0  0
 19 20  2  0  0  0  0
 20 21  1  0  0  0  0
 21 22  1  0  0  0  0
 21 35  1  0  0  0  0
 21 36  1  0  0  0  0
 22 23  1  0  0  0  0
 22 37  1  0  0  0  0
 22 38  1  0  0  0  0
 23 39  1  0  0  0  0
 23 40  1  0  0  0  0
M  END
$$$$
