ZINC000000002055      none
 OpenBabel11202420153D

 17 17  0  0  0  0  0  0  0  0999 V2000
   31.4685   35.4111   59.0213 N   0  0  0  0  0  0  0  0  0  0  0  0
   31.7093   36.6298   59.5438 C   0  0  0  0  0  0  0  0  0  0  0  0
   31.3937   36.8718   60.6928 O   0  0  0  0  0  0  0  0  0  0  0  0
   32.3560   37.6703   58.7217 C   0  0  0  0  0  0  0  0  0  0  0  0
   32.7156   37.3982   57.3994 C   0  0  0  0  0  0  0  0  0  0  0  0
   33.3241   38.3726   56.6385 C   0  0  0  0  0  0  0  0  0  0  0  0
   33.5770   39.6238   57.1772 C   0  0  0  0  0  0  0  0  0  0  0  0
   33.2220   39.9077   58.4809 C   0  0  0  0  0  0  0  0  0  0  0  0
   32.6083   38.9389   59.2610 C   0  0  0  0  0  0  0  0  0  0  0  0
   32.2589   39.2164   60.5421 O   0  0  0  0  0  0  0  0  0  0  0  0
   31.7202   35.2181   58.1046 H   0  0  0  0  0  0  0  0  0  0  0  0
   31.0432   34.7270   59.5617 H   0  0  0  0  0  0  0  0  0  0  0  0
   32.5206   36.4243   56.9754 H   0  0  0  0  0  0  0  0  0  0  0  0
   33.6048   38.1602   55.6175 H   0  0  0  0  0  0  0  0  0  0  0  0
   34.0543   40.3817   56.5737 H   0  0  0  0  0  0  0  0  0  0  0  0
   33.4221   40.8855   58.8935 H   0  0  0  0  0  0  0  0  0  0  0  0
   32.4737   40.1167   60.8222 H   0  0  0  0  0  0  0  0  0  0  0  0
  1  2  1  0  0  0  0
  1 11  1  0  0  0  0
  1 12  1  0  0  0  0
  2  3  2  0  0  0  0
  2  4  1  0  0  0  0
  4  9  2  0  0  0  0
  4  5  1  0  0  0  0
  5  6  2  0  0  0  0
  5 13  1  0  0  0  0
  6  7  1  0  0  0  0
  6 14  1  0  0  0  0
  7  8  2  0  0  0  0
  7 15  1  0  0  0  0
  8  9  1  0  0  0  0
  8 16  1  0  0  0  0
  9 10  1  0  0  0  0
 10 17  1  0  0  0  0
M  END
$$$$
