ZINC000000032563      none
 OpenBabel11202420153D

 21 22  0  0  0  0  0  0  0  0999 V2000
   30.7832   34.1461   60.9221 O   0  0  0  0  0  0  0  0  0  0  0  0
   31.1169   33.5889   59.8917 N   0  0  0  0  0  0  0  0  0  0  0  0
   30.8488   32.4131   59.7210 O   0  0  0  0  0  0  0  0  0  0  0  0
   31.8479   34.3405   58.8471 C   0  0  0  0  0  0  0  0  0  0  0  0
   32.2261   33.7079   57.6775 C   0  0  0  0  0  0  0  0  0  0  0  0
   32.9092   34.4105   56.7014 C   0  0  0  0  0  0  0  0  0  0  0  0
   33.4274   33.5457   55.1017 Br  0  0  0  0  0  0  0  0  0  0  0  0
   33.2091   35.7473   56.8938 C   0  0  0  0  0  0  0  0  0  0  0  0
   32.8348   36.3774   58.0655 C   0  0  0  0  0  0  0  0  0  0  0  0
   32.1519   35.6748   59.0409 C   0  0  0  0  0  0  0  0  0  0  0  0
   31.7385   36.3640   60.3157 C   0  0  0  0  0  0  0  0  0  0  0  0
   30.2952   36.8621   60.4135 C   0  0  0  0  0  0  0  0  0  0  0  0
   31.4398   37.8629   60.2435 C   0  0  0  0  0  0  0  0  0  0  0  0
   31.9885   32.6653   57.5262 H   0  0  0  0  0  0  0  0  0  0  0  0
   33.7386   36.2973   56.1299 H   0  0  0  0  0  0  0  0  0  0  0  0
   33.0718   37.4201   58.2171 H   0  0  0  0  0  0  0  0  0  0  0  0
   32.2038   35.9869   61.2263 H   0  0  0  0  0  0  0  0  0  0  0  0
   29.6445   36.6911   59.5557 H   0  0  0  0  0  0  0  0  0  0  0  0
   29.8106   36.8124   61.3885 H   0  0  0  0  0  0  0  0  0  0  0  0
   31.7084   38.4717   61.1069 H   0  0  0  0  0  0  0  0  0  0  0  0
   31.5424   38.3504   59.2741 H   0  0  0  0  0  0  0  0  0  0  0  0
  1  2  2  0  0  0  0
  2  3  2  0  0  0  0
  2  4  1  0  0  0  0
  4 10  2  0  0  0  0
  4  5  1  0  0  0  0
  5  6  2  0  0  0  0
  5 14  1  0  0  0  0
  6  7  1  0  0  0  0
  6  8  1  0  0  0  0
  8  9  2  0  0  0  0
  8 15  1  0  0  0  0
  9 10  1  0  0  0  0
  9 16  1  0  0  0  0
 10 11  1  0  0  0  0
 11 13  1  0  0  0  0
 11 12  1  0  0  0  0
 11 17  1  0  0  0  0
 12 13  1  0  0  0  0
 12 18  1  0  0  0  0
 12 19  1  0  0  0  0
 13 20  1  0  0  0  0
 13 21  1  0  0  0  0
M  END
$$$$
