ZINC000000048021      none
 OpenBabel11202420153D

 43 45  0  0  1  0  0  0  0  0999 V2000
   32.2892   38.2013   58.8615 C   0  0  0  0  0  0  0  0  0  0  0  0
   30.9998   37.6937   59.2104 O   0  0  0  0  0  0  0  0  0  0  0  0
   30.7380   37.5316   60.5341 C   0  0  0  0  0  0  0  0  0  0  0  0
   29.5061   37.0424   60.9438 C   0  0  0  0  0  0  0  0  0  0  0  0
   29.2426   36.8781   62.2899 C   0  0  0  0  0  0  0  0  0  0  0  0
   30.2053   37.2007   63.2284 C   0  0  0  0  0  0  0  0  0  0  0  0
   29.9152   37.0205   64.6963 C   0  0  0  0  0  0  0  0  0  0  0  0
   29.3067   38.2844   65.2470 C   0  0  0  0  0  0  0  0  0  0  0  0
   28.6382   38.9983   64.5295 O   0  0  0  0  0  0  0  0  0  0  0  0
   29.5008   38.6186   66.5382 N   0  0  0  0  0  0  0  0  0  0  0  0
   30.2390   37.8854   67.4648 N   0  0  0  0  0  0  0  0  0  0  0  0
   30.2873   38.3996   68.6247 C   0  0  0  0  0  0  0  0  0  0  0  0
   31.0197   37.8123   69.8037 C   0  0  0  0  0  0  0  0  0  0  0  0
   29.4928   39.6859   68.6472 C   0  0  0  0  0  0  0  0  0  0  0  0
   28.9624   39.8159   67.2050 C   0  0  1  0  0  0  0  0  0  0  0  0
   29.4630   41.0042   66.5888 O   0  0  0  0  0  0  0  0  0  0  0  0
   27.4556   39.8012   67.1890 C   0  0  0  0  0  0  0  0  0  0  0  0
   26.7496   38.7709   67.7914 C   0  0  0  0  0  0  0  0  0  0  0  0
   25.3681   38.7937   67.7610 C   0  0  0  0  0  0  0  0  0  0  0  0
   24.7225   39.7739   67.1598 N   0  0  0  0  0  0  0  0  0  0  0  0
   25.3611   40.7668   66.5720 C   0  0  0  0  0  0  0  0  0  0  0  0
   26.7423   40.8142   66.5668 C   0  0  0  0  0  0  0  0  0  0  0  0
   31.4318   37.6937   62.8229 C   0  0  0  0  0  0  0  0  0  0  0  0
   31.7023   37.8546   61.4777 C   0  0  0  0  0  0  0  0  0  0  0  0
   32.4257   39.1855   59.3098 H   0  0  0  0  0  0  0  0  0  0  0  0
   33.0588   37.5238   59.2315 H   0  0  0  0  0  0  0  0  0  0  0  0
   32.3668   38.2820   57.7773 H   0  0  0  0  0  0  0  0  0  0  0  0
   28.7538   36.7907   60.2111 H   0  0  0  0  0  0  0  0  0  0  0  0
   28.2839   36.4970   62.6095 H   0  0  0  0  0  0  0  0  0  0  0  0
   30.8427   36.8030   65.2259 H   0  0  0  0  0  0  0  0  0  0  0  0
   29.2180   36.1933   64.8299 H   0  0  0  0  0  0  0  0  0  0  0  0
   30.3528   37.1452   70.3501 H   0  0  0  0  0  0  0  0  0  0  0  0
   31.8855   37.2518   69.4511 H   0  0  0  0  0  0  0  0  0  0  0  0
   31.3503   38.6152   70.4627 H   0  0  0  0  0  0  0  0  0  0  0  0
   30.1369   40.5295   68.8957 H   0  0  0  0  0  0  0  0  0  0  0  0
   28.6661   39.6130   69.3539 H   0  0  0  0  0  0  0  0  0  0  0  0
   30.4275   41.0744   66.5953 H   0  0  0  0  0  0  0  0  0  0  0  0
   27.2725   37.9631   68.2814 H   0  0  0  0  0  0  0  0  0  0  0  0
   24.8106   37.9974   68.2320 H   0  0  0  0  0  0  0  0  0  0  0  0
   24.7982   41.5521   66.0896 H   0  0  0  0  0  0  0  0  0  0  0  0
   27.2597   41.6304   66.0844 H   0  0  0  0  0  0  0  0  0  0  0  0
   32.1804   37.9495   63.5581 H   0  0  0  0  0  0  0  0  0  0  0  0
   32.6621   38.2355   61.1612 H   0  0  0  0  0  0  0  0  0  0  0  0
  1  2  1  0  0  0  0
  1 25  1  0  0  0  0
  1 26  1  0  0  0  0
  1 27  1  0  0  0  0
  2  3  1  0  0  0  0
  3 24  2  0  0  0  0
  3  4  1  0  0  0  0
  4  5  2  0  0  0  0
  4 28  1  0  0  0  0
  5  6  1  0  0  0  0
  5 29  1  0  0  0  0
  6  7  1  0  0  0  0
  6 23  2  0  0  0  0
  7  8  1  0  0  0  0
  7 30  1  0  0  0  0
  7 31  1  0  0  0  0
  8  9  2  0  0  0  0
  8 10  1  0  0  0  0
 10 15  1  0  0  0  0
 10 11  1  0  0  0  0
 11 12  2  0  0  0  0
 12 13  1  0  0  0  0
 12 14  1  0  0  0  0
 13 32  1  0  0  0  0
 13 33  1  0  0  0  0
 13 34  1  0  0  0  0
 14 15  1  0  0  0  0
 14 35  1  0  0  0  0
 14 36  1  0  0  0  0
 15 16  1  6  0  0  0
 15 17  1  0  0  0  0
 16 37  1  0  0  0  0
 17 22  2  0  0  0  0
 17 18  1  0  0  0  0
 18 19  2  0  0  0  0
 18 38  1  0  0  0  0
 19 20  1  0  0  0  0
 19 39  1  0  0  0  0
 20 21  2  0  0  0  0
 21 22  1  0  0  0  0
 21 40  1  0  0  0  0
 22 41  1  0  0  0  0
 23 24  1  0  0  0  0
 23 42  1  0  0  0  0
 24 43  1  0  0  0  0
M  END
$$$$
