ZINC000000024612      none
 OpenBabel11202420153D

 31 33  0  0  1  0  0  0  0  0999 V2000
   33.2416   40.8370   59.0179 N   0  0  0  0  0  0  0  0  0  0  0  0
   33.2067   39.6041   58.4163 C   0  0  0  0  0  0  0  0  0  0  0  0
   32.8300   38.5605   59.1211 N   0  0  0  0  0  0  0  0  0  0  0  0
   32.7808   37.3393   58.5765 C   0  0  0  0  0  0  0  0  0  0  0  0
   33.1356   37.1640   57.2340 C   0  0  0  0  0  0  0  0  0  0  0  0
   32.9962   35.8462   56.9500 N   0  0  0  0  0  0  0  0  0  0  0  0
   32.5868   35.2174   58.0127 C   0  0  0  0  0  0  0  0  0  0  0  0
   32.4395   36.0992   59.0439 N   0  0  0  0  0  0  0  0  0  0  0  0
   31.9963   35.7772   60.4026 C   0  0  2  0  0  0  0  0  0  0  0  0
   32.6771   35.0616   60.8635 H   0  0  0  0  0  0  0  0  0  0  0  0
   30.5581   35.2136   60.3798 C   0  0  0  0  0  0  0  0  0  0  0  0
   29.9061   35.7972   61.6532 C   0  0  0  0  0  0  0  0  0  0  0  0
   31.0272   36.6445   62.2947 C   0  0  2  0  0  0  0  0  0  0  0  0
   31.5577   36.0631   63.0488 H   0  0  0  0  0  0  0  0  0  0  0  0
   30.4451   37.9158   62.9157 C   0  0  0  0  0  0  0  0  0  0  0  0
   29.4947   37.5620   63.9226 O   0  0  0  0  0  0  0  0  0  0  0  0
   31.9122   36.9774   61.2016 O   0  0  0  0  0  0  0  0  0  0  0  0
   33.5437   38.2948   56.4884 C   0  0  0  0  0  0  0  0  0  0  0  0
   33.8615   38.1886   55.3162 O   0  0  0  0  0  0  0  0  0  0  0  0
   33.5644   39.4970   57.1055 N   0  0  0  0  0  0  0  0  0  0  0  0
   33.8384   40.2870   56.6139 H   0  0  0  0  0  0  0  0  0  0  0  0
   32.9903   40.9290   59.9502 H   0  0  0  0  0  0  0  0  0  0  0  0
   33.5175   41.6164   58.5107 H   0  0  0  0  0  0  0  0  0  0  0  0
   32.3921   34.1567   58.0702 H   0  0  0  0  0  0  0  0  0  0  0  0
   30.0290   35.5533   59.4896 H   0  0  0  0  0  0  0  0  0  0  0  0
   30.5741   34.1245   60.4212 H   0  0  0  0  0  0  0  0  0  0  0  0
   29.0543   36.4255   61.3924 H   0  0  0  0  0  0  0  0  0  0  0  0
   29.5994   34.9968   62.3265 H   0  0  0  0  0  0  0  0  0  0  0  0
   31.2476   38.5018   63.3634 H   0  0  0  0  0  0  0  0  0  0  0  0
   29.9525   38.5053   62.1424 H   0  0  0  0  0  0  0  0  0  0  0  0
   29.8641   37.0351   64.6444 H   0  0  0  0  0  0  0  0  0  0  0  0
  1  2  1  0  0  0  0
  1 22  1  0  0  0  0
  1 23  1  0  0  0  0
  2 20  1  0  0  0  0
  2  3  2  0  0  0  0
  3  4  1  0  0  0  0
  4  8  1  0  0  0  0
  4  5  2  0  0  0  0
  5  6  1  0  0  0  0
  5 18  1  0  0  0  0
  6  7  2  0  0  0  0
  7  8  1  0  0  0  0
  7 24  1  0  0  0  0
  8  9  1  0  0  0  0
  9 10  1  1  0  0  0
  9 17  1  0  0  0  0
  9 11  1  0  0  0  0
 11 12  1  0  0  0  0
 11 25  1  0  0  0  0
 11 26  1  0  0  0  0
 12 13  1  0  0  0  0
 12 27  1  0  0  0  0
 12 28  1  0  0  0  0
 13 14  1  1  0  0  0
 13 15  1  0  0  0  0
 13 17  1  0  0  0  0
 15 16  1  0  0  0  0
 15 29  1  0  0  0  0
 15 30  1  0  0  0  0
 16 31  1  0  0  0  0
 18 19  2  0  0  0  0
 18 20  1  0  0  0  0
 20 21  1  0  0  0  0
M  END
$$$$
