ZINC000000037718      none
 OpenBabel11202420153D

 35 37  0  0  1  0  0  0  0  0999 V2000
   32.9941   37.2814   67.3002 C   0  0  0  0  0  0  0  0  0  0  0  0
   33.1201   37.1288   65.7831 C   0  0  0  0  0  0  0  0  0  0  0  0
   31.9720   37.7406   65.1382 O   0  0  0  0  0  0  0  0  0  0  0  0
   31.9289   37.6926   63.7973 C   0  0  0  0  0  0  0  0  0  0  0  0
   32.8208   37.1571   63.1830 O   0  0  0  0  0  0  0  0  0  0  0  0
   30.7680   38.3068   63.0584 C   0  0  1  0  0  0  0  0  0  0  0  0
   30.3747   39.1488   63.6280 H   0  0  0  0  0  0  0  0  0  0  0  0
   31.2147   38.7709   61.7408 N   0  0  0  0  0  0  0  0  0  0  0  0
   31.5389   37.8129   60.7734 C   0  0  0  0  0  0  0  0  0  0  0  0
   32.3352   38.1768   59.6947 C   0  0  0  0  0  0  0  0  0  0  0  0
   32.6661   37.2426   58.7336 C   0  0  0  0  0  0  0  0  0  0  0  0
   32.2017   35.9443   58.8512 C   0  0  0  0  0  0  0  0  0  0  0  0
   32.6535   34.6602   57.5387 Br  0  0  0  0  0  0  0  0  0  0  0  0
   31.4102   35.5827   59.9231 C   0  0  0  0  0  0  0  0  0  0  0  0
   31.0657   36.5153   60.8921 C   0  0  0  0  0  0  0  0  0  0  0  0
   30.2061   36.0780   62.0354 C   0  0  1  0  0  0  0  0  0  0  0  0
   29.3710   35.4960   61.6456 H   0  0  0  0  0  0  0  0  0  0  0  0
   30.9823   35.2457   63.0281 C   0  0  0  0  0  0  0  0  0  0  0  0
   30.5791   35.5023   64.2487 C   0  0  0  0  0  0  0  0  0  0  0  0
   29.4725   36.5392   64.2354 C   0  0  0  0  0  0  0  0  0  0  0  0
   29.6684   37.2580   62.8682 C   0  0  1  0  0  0  0  0  0  0  0  0
   28.7457   37.6842   62.4745 H   0  0  0  0  0  0  0  0  0  0  0  0
   32.9547   38.3401   67.5568 H   0  0  0  0  0  0  0  0  0  0  0  0
   32.0820   36.7909   67.6404 H   0  0  0  0  0  0  0  0  0  0  0  0
   33.8560   36.8221   67.7844 H   0  0  0  0  0  0  0  0  0  0  0  0
   33.1596   36.0701   65.5265 H   0  0  0  0  0  0  0  0  0  0  0  0
   34.0321   37.6193   65.4430 H   0  0  0  0  0  0  0  0  0  0  0  0
   31.2840   39.7184   61.5447 H   0  0  0  0  0  0  0  0  0  0  0  0
   32.6952   39.1913   59.6078 H   0  0  0  0  0  0  0  0  0  0  0  0
   33.2849   37.5236   57.8943 H   0  0  0  0  0  0  0  0  0  0  0  0
   31.0523   34.5670   60.0059 H   0  0  0  0  0  0  0  0  0  0  0  0
   31.7582   34.5404   62.7696 H   0  0  0  0  0  0  0  0  0  0  0  0
   30.9792   35.0402   65.1390 H   0  0  0  0  0  0  0  0  0  0  0  0
   29.5945   37.2418   65.0598 H   0  0  0  0  0  0  0  0  0  0  0  0
   28.4952   36.0586   64.2803 H   0  0  0  0  0  0  0  0  0  0  0  0
  1  2  1  0  0  0  0
  1 23  1  0  0  0  0
  1 24  1  0  0  0  0
  1 25  1  0  0  0  0
  2  3  1  0  0  0  0
  2 26  1  0  0  0  0
  2 27  1  0  0  0  0
  3  4  1  0  0  0  0
  4  5  2  0  0  0  0
  4  6  1  0  0  0  0
  6  7  1  1  0  0  0
  6 21  1  0  0  0  0
  6  8  1  0  0  0  0
  8  9  1  0  0  0  0
  8 28  1  0  0  0  0
  9 15  2  0  0  0  0
  9 10  1  0  0  0  0
 10 11  2  0  0  0  0
 10 29  1  0  0  0  0
 11 12  1  0  0  0  0
 11 30  1  0  0  0  0
 12 13  1  0  0  0  0
 12 14  2  0  0  0  0
 14 15  1  0  0  0  0
 14 31  1  0  0  0  0
 15 16  1  0  0  0  0
 16 17  1  6  0  0  0
 16 21  1  0  0  0  0
 16 18  1  0  0  0  0
 18 19  2  0  0  0  0
 18 32  1  0  0  0  0
 19 20  1  0  0  0  0
 19 33  1  0  0  0  0
 20 21  1  0  0  0  0
 20 34  1  0  0  0  0
 20 35  1  0  0  0  0
 21 22  1  6  0  0  0
M  END
$$$$
