ZINC000000008036      none
 OpenBabel11202420153D

 36 37  0  0  1  0  0  0  0  0999 V2000
   29.2510   32.8338   65.0764 C   0  0  0  0  0  0  0  0  0  0  0  0
   29.1638   34.0161   64.1458 C   0  0  0  0  0  0  0  0  0  0  0  0
   28.1498   34.6800   64.1022 O   0  0  0  0  0  0  0  0  0  0  0  0
   30.2129   34.3357   63.3622 N   0  0  0  0  0  0  0  0  0  0  0  0
   30.1282   35.4849   62.4577 C   0  0  2  0  0  0  0  0  0  0  0  0
   29.1000   35.6028   62.1152 H   0  0  0  0  0  0  0  0  0  0  0  0
   31.0300   35.2583   61.2718 C   0  0  0  0  0  0  0  0  0  0  0  0
   31.6794   34.2374   61.1901 O   0  0  0  0  0  0  0  0  0  0  0  0
   31.1147   36.1904   60.3019 N   0  0  0  0  0  0  0  0  0  0  0  0
   31.9912   35.9700   59.1489 C   0  0  0  0  0  0  0  0  0  0  0  0
   32.4913   37.2964   58.6373 C   0  0  0  0  0  0  0  0  0  0  0  0
   32.7843   37.4537   57.2956 C   0  0  0  0  0  0  0  0  0  0  0  0
   33.2424   38.6706   56.8262 C   0  0  0  0  0  0  0  0  0  0  0  0
   33.4089   39.7296   57.6989 C   0  0  0  0  0  0  0  0  0  0  0  0
   33.1155   39.5724   59.0405 C   0  0  0  0  0  0  0  0  0  0  0  0
   32.6564   38.3558   59.5097 C   0  0  0  0  0  0  0  0  0  0  0  0
   30.5606   36.7309   63.1868 C   0  0  0  0  0  0  0  0  0  0  0  0
   31.8231   36.8717   63.7365 C   0  0  0  0  0  0  0  0  0  0  0  0
   32.0452   38.0388   64.3431 C   0  0  0  0  0  0  0  0  0  0  0  0
   30.6004   39.0372   64.2479 S   0  0  0  0  0  0  0  0  0  0  0  0
   29.7536   37.7796   63.3564 C   0  0  0  0  0  0  0  0  0  0  0  0
   29.6396   33.1590   66.0415 H   0  0  0  0  0  0  0  0  0  0  0  0
   28.2588   32.4031   65.2105 H   0  0  0  0  0  0  0  0  0  0  0  0
   29.9177   32.0843   64.6501 H   0  0  0  0  0  0  0  0  0  0  0  0
   31.0238   33.8046   63.3972 H   0  0  0  0  0  0  0  0  0  0  0  0
   30.5952   37.0070   60.3671 H   0  0  0  0  0  0  0  0  0  0  0  0
   31.4345   35.4631   58.3608 H   0  0  0  0  0  0  0  0  0  0  0  0
   32.8386   35.3536   59.4493 H   0  0  0  0  0  0  0  0  0  0  0  0
   32.6595   36.6247   56.6147 H   0  0  0  0  0  0  0  0  0  0  0  0
   33.4717   38.7934   55.7780 H   0  0  0  0  0  0  0  0  0  0  0  0
   33.7670   40.6802   57.3322 H   0  0  0  0  0  0  0  0  0  0  0  0
   33.2445   40.4001   59.7221 H   0  0  0  0  0  0  0  0  0  0  0  0
   32.4272   38.2330   60.5579 H   0  0  0  0  0  0  0  0  0  0  0  0
   32.5730   36.0969   63.6753 H   0  0  0  0  0  0  0  0  0  0  0  0
   32.9693   38.3249   64.8235 H   0  0  0  0  0  0  0  0  0  0  0  0
   28.7363   37.8462   63.0004 H   0  0  0  0  0  0  0  0  0  0  0  0
  1  2  1  0  0  0  0
  1 22  1  0  0  0  0
  1 23  1  0  0  0  0
  1 24  1  0  0  0  0
  2  3  2  0  0  0  0
  2  4  1  0  0  0  0
  4  5  1  0  0  0  0
  4 25  1  0  0  0  0
  5  6  1  6  0  0  0
  5  7  1  0  0  0  0
  5 17  1  0  0  0  0
  7  8  2  0  0  0  0
  7  9  1  0  0  0  0
  9 10  1  0  0  0  0
  9 26  1  0  0  0  0
 10 11  1  0  0  0  0
 10 27  1  0  0  0  0
 10 28  1  0  0  0  0
 11 16  2  0  0  0  0
 11 12  1  0  0  0  0
 12 13  2  0  0  0  0
 12 29  1  0  0  0  0
 13 14  1  0  0  0  0
 13 30  1  0  0  0  0
 14 15  2  0  0  0  0
 14 31  1  0  0  0  0
 15 16  1  0  0  0  0
 15 32  1  0  0  0  0
 16 33  1  0  0  0  0
 17 21  2  0  0  0  0
 17 18  1  0  0  0  0
 18 19  2  0  0  0  0
 18 34  1  0  0  0  0
 19 20  1  0  0  0  0
 19 35  1  0  0  0  0
 20 21  1  0  0  0  0
 21 36  1  0  0  0  0
M  END
$$$$
