ZINC000000037459      none
 OpenBabel11202420153D

 34 35  0  0  0  0  0  0  0  0999 V2000
   29.4355   34.8239   65.6788 C   0  0  0  0  0  0  0  0  0  0  0  0
   29.7204   33.8517   64.1790 S   0  0  0  0  0  0  0  0  0  0  0  0
   30.4282   35.0885   63.1426 C   0  0  0  0  0  0  0  0  0  0  0  0
   31.8099   35.2814   63.1344 C   0  0  0  0  0  0  0  0  0  0  0  0
   32.3626   36.2380   62.3347 C   0  0  0  0  0  0  0  0  0  0  0  0
   31.5377   37.0329   61.5219 C   0  0  0  0  0  0  0  0  0  0  0  0
   32.1068   38.0326   60.6925 C   0  0  0  0  0  0  0  0  0  0  0  0
   32.4908   37.7230   59.4005 C   0  0  0  0  0  0  0  0  0  0  0  0
   32.5423   36.3266   58.9253 C   0  0  0  0  0  0  0  0  0  0  0  0
   32.2462   35.4046   59.6617 O   0  0  0  0  0  0  0  0  0  0  0  0
   32.9215   36.1012   57.6506 N   0  0  0  0  0  0  0  0  0  0  0  0
   32.9755   34.7243   57.1530 C   0  0  0  0  0  0  0  0  0  0  0  0
   33.2559   37.1071   56.8303 C   0  0  0  0  0  0  0  0  0  0  0  0
   33.7322   36.7238   55.2312 S   0  0  0  0  0  0  0  0  0  0  0  0
   33.2369   38.3969   57.1942 N   0  0  0  0  0  0  0  0  0  0  0  0
   33.6210   39.4210   56.2196 C   0  0  0  0  0  0  0  0  0  0  0  0
   32.8730   38.7739   58.4373 C   0  0  0  0  0  0  0  0  0  0  0  0
   32.8600   39.9481   58.7556 O   0  0  0  0  0  0  0  0  0  0  0  0
   30.1477   36.8308   61.5296 C   0  0  0  0  0  0  0  0  0  0  0  0
   29.6050   35.8719   62.3333 C   0  0  0  0  0  0  0  0  0  0  0  0
   28.9877   34.1892   66.4436 H   0  0  0  0  0  0  0  0  0  0  0  0
   30.3848   35.2168   66.0429 H   0  0  0  0  0  0  0  0  0  0  0  0
   28.7624   35.6510   65.4533 H   0  0  0  0  0  0  0  0  0  0  0  0
   32.4429   34.6723   63.7627 H   0  0  0  0  0  0  0  0  0  0  0  0
   33.4323   36.3869   62.3296 H   0  0  0  0  0  0  0  0  0  0  0  0
   32.2405   39.0356   61.0699 H   0  0  0  0  0  0  0  0  0  0  0  0
   33.3039   34.7262   56.1136 H   0  0  0  0  0  0  0  0  0  0  0  0
   33.6780   34.1478   57.7549 H   0  0  0  0  0  0  0  0  0  0  0  0
   31.9849   34.2745   57.2203 H   0  0  0  0  0  0  0  0  0  0  0  0
   34.6938   39.6018   56.2862 H   0  0  0  0  0  0  0  0  0  0  0  0
   33.3719   39.0782   55.2152 H   0  0  0  0  0  0  0  0  0  0  0  0
   33.0828   40.3447   56.4321 H   0  0  0  0  0  0  0  0  0  0  0  0
   29.5094   37.4370   60.9038 H   0  0  0  0  0  0  0  0  0  0  0  0
   28.5358   35.7189   62.3436 H   0  0  0  0  0  0  0  0  0  0  0  0
  1  2  1  0  0  0  0
  1 21  1  0  0  0  0
  1 22  1  0  0  0  0
  1 23  1  0  0  0  0
  2  3  1  0  0  0  0
  3 20  2  0  0  0  0
  3  4  1  0  0  0  0
  4  5  2  0  0  0  0
  4 24  1  0  0  0  0
  5  6  1  0  0  0  0
  5 25  1  0  0  0  0
  6  7  1  0  0  0  0
  6 19  2  0  0  0  0
  7  8  2  0  0  0  0
  7 26  1  0  0  0  0
  8 17  1  0  0  0  0
  8  9  1  0  0  0  0
  9 10  2  0  0  0  0
  9 11  1  0  0  0  0
 11 12  1  0  0  0  0
 11 13  1  0  0  0  0
 12 27  1  0  0  0  0
 12 28  1  0  0  0  0
 12 29  1  0  0  0  0
 13 14  2  0  0  0  0
 13 15  1  0  0  0  0
 15 16  1  0  0  0  0
 15 17  1  0  0  0  0
 16 30  1  0  0  0  0
 16 31  1  0  0  0  0
 16 32  1  0  0  0  0
 17 18  2  0  0  0  0
 19 20  1  0  0  0  0
 19 33  1  0  0  0  0
 20 34  1  0  0  0  0
M  END
$$$$
