ZINC000000018830      none
 OpenBabel11202420153D

 28 29  0  0  1  0  0  0  0  0999 V2000
   28.6060   37.3725   62.4113 N   0  0  0  0  0  0  0  0  0  0  0  0
   29.6819   37.7161   62.2902 C   0  0  0  0  0  0  0  0  0  0  0  0
   31.0761   38.1616   62.1332 C   0  0  2  0  0  0  0  0  0  0  0  0
   31.1480   39.2221   62.3741 H   0  0  0  0  0  0  0  0  0  0  0  0
   31.5173   37.9386   60.7095 C   0  0  0  0  0  0  0  0  0  0  0  0
   31.0432   37.0286   60.0631 O   0  0  0  0  0  0  0  0  0  0  0  0
   32.4348   38.7541   60.1531 N   0  0  0  0  0  0  0  0  0  0  0  0
   32.8394   38.5512   58.8330 C   0  0  0  0  0  0  0  0  0  0  0  0
   33.2455   39.6212   58.0372 C   0  0  0  0  0  0  0  0  0  0  0  0
   33.6422   39.3780   56.7385 C   0  0  0  0  0  0  0  0  0  0  0  0
   33.6310   38.1539   56.2457 N   0  0  0  0  0  0  0  0  0  0  0  0
   33.2491   37.1159   56.9657 C   0  0  0  0  0  0  0  0  0  0  0  0
   32.8424   37.2741   58.2744 C   0  0  0  0  0  0  0  0  0  0  0  0
   31.9627   37.3739   63.0630 C   0  0  0  0  0  0  0  0  0  0  0  0
   33.1120   37.1575   62.7624 O   0  0  0  0  0  0  0  0  0  0  0  0
   31.4150   36.8564   64.3682 C   0  0  0  0  0  0  0  0  0  0  0  0
   31.3502   37.8332   65.5440 C   0  0  0  0  0  0  0  0  0  0  0  0
   32.3919   36.7125   65.5368 C   0  0  0  0  0  0  0  0  0  0  0  0
   32.8140   39.4819   60.6700 H   0  0  0  0  0  0  0  0  0  0  0  0
   33.2526   40.6261   58.4328 H   0  0  0  0  0  0  0  0  0  0  0  0
   33.9619   40.2005   56.1158 H   0  0  0  0  0  0  0  0  0  0  0  0
   33.2547   36.1301   56.5246 H   0  0  0  0  0  0  0  0  0  0  0  0
   32.5304   36.4205   58.8578 H   0  0  0  0  0  0  0  0  0  0  0  0
   30.6190   36.1166   64.2834 H   0  0  0  0  0  0  0  0  0  0  0  0
   31.7039   38.8501   65.3737 H   0  0  0  0  0  0  0  0  0  0  0  0
   30.5114   37.7362   66.2333 H   0  0  0  0  0  0  0  0  0  0  0  0
   32.2384   35.8783   66.2213 H   0  0  0  0  0  0  0  0  0  0  0  0
   33.4309   36.9921   65.3616 H   0  0  0  0  0  0  0  0  0  0  0  0
  1  2  3  0  0  0  0
  2  3  1  0  0  0  0
  3  4  1  1  0  0  0
  3  5  1  0  0  0  0
  3 14  1  0  0  0  0
  5  6  2  0  0  0  0
  5  7  1  0  0  0  0
  7  8  1  0  0  0  0
  7 19  1  0  0  0  0
  8 13  2  0  0  0  0
  8  9  1  0  0  0  0
  9 10  2  0  0  0  0
  9 20  1  0  0  0  0
 10 11  1  0  0  0  0
 10 21  1  0  0  0  0
 11 12  2  0  0  0  0
 12 13  1  0  0  0  0
 12 22  1  0  0  0  0
 13 23  1  0  0  0  0
 14 15  2  0  0  0  0
 14 16  1  0  0  0  0
 16 18  1  0  0  0  0
 16 17  1  0  0  0  0
 16 24  1  0  0  0  0
 17 18  1  0  0  0  0
 17 25  1  0  0  0  0
 17 26  1  0  0  0  0
 18 27  1  0  0  0  0
 18 28  1  0  0  0  0
M  END
$$$$
