ZINC000000054429      none
 OpenBabel11202420153D

 35 37  0  0  0  0  0  0  0  0999 V2000
   36.3949   40.3670   50.5344 C   0  0  0  0  0  0  0  0  0  0  0  0
   35.8055   40.3149   51.9204 C   0  0  0  0  0  0  0  0  0  0  0  0
   35.3805   39.1635   52.6126 C   0  0  0  0  0  0  0  0  0  0  0  0
   34.9322   39.6462   53.8092 C   0  0  0  0  0  0  0  0  0  0  0  0
   34.4052   38.9101   54.8582 N   0  0  0  0  0  0  0  0  0  0  0  0
   34.0031   39.5331   55.9836 C   0  0  0  0  0  0  0  0  0  0  0  0
   34.1032   40.7440   56.0788 O   0  0  0  0  0  0  0  0  0  0  0  0
   33.4670   38.7844   57.0506 C   0  0  0  0  0  0  0  0  0  0  0  0
   33.2500   37.0364   57.0874 S   0  0  0  0  0  0  0  0  0  0  0  0
   32.5973   37.1342   58.6634 C   0  0  0  0  0  0  0  0  0  0  0  0
   32.1621   36.0529   59.3990 N   0  0  0  0  0  0  0  0  0  0  0  0
   31.6371   36.2449   60.6818 C   0  0  0  0  0  0  0  0  0  0  0  0
   32.2367   35.6379   61.7771 C   0  0  0  0  0  0  0  0  0  0  0  0
   31.7165   35.8297   63.0424 C   0  0  0  0  0  0  0  0  0  0  0  0
   30.5992   36.6248   63.2199 C   0  0  0  0  0  0  0  0  0  0  0  0
   29.9986   37.2320   62.1324 C   0  0  0  0  0  0  0  0  0  0  0  0
   30.5109   37.0408   60.8622 C   0  0  0  0  0  0  0  0  0  0  0  0
   29.9212   37.6297   59.7989 F   0  0  0  0  0  0  0  0  0  0  0  0
   32.5621   38.3690   59.0728 N   0  0  0  0  0  0  0  0  0  0  0  0
   33.0186   39.2883   58.2532 C   0  0  0  0  0  0  0  0  0  0  0  0
   33.0426   40.6397   58.5660 N   0  0  0  0  0  0  0  0  0  0  0  0
   35.0994   40.9775   53.7631 O   0  0  0  0  0  0  0  0  0  0  0  0
   35.5883   41.3262   52.7138 N   0  0  0  0  0  0  0  0  0  0  0  0
   35.5952   40.4888   49.8039 H   0  0  0  0  0  0  0  0  0  0  0  0
   37.0831   41.2094   50.4637 H   0  0  0  0  0  0  0  0  0  0  0  0
   36.9328   39.4405   50.3333 H   0  0  0  0  0  0  0  0  0  0  0  0
   35.4038   38.1377   52.2757 H   0  0  0  0  0  0  0  0  0  0  0  0
   34.3256   37.9463   54.7824 H   0  0  0  0  0  0  0  0  0  0  0  0
   32.2197   35.1587   59.0275 H   0  0  0  0  0  0  0  0  0  0  0  0
   33.1094   35.0166   61.6402 H   0  0  0  0  0  0  0  0  0  0  0  0
   32.1829   35.3575   63.8943 H   0  0  0  0  0  0  0  0  0  0  0  0
   30.1949   36.7724   64.2105 H   0  0  0  0  0  0  0  0  0  0  0  0
   29.1261   37.8525   62.2745 H   0  0  0  0  0  0  0  0  0  0  0  0
   33.3870   41.2802   57.9240 H   0  0  0  0  0  0  0  0  0  0  0  0
   32.7152   40.9442   59.4268 H   0  0  0  0  0  0  0  0  0  0  0  0
  1  2  1  0  0  0  0
  1 24  1  0  0  0  0
  1 25  1  0  0  0  0
  1 26  1  0  0  0  0
  2 23  2  0  0  0  0
  2  3  1  0  0  0  0
  3  4  2  0  0  0  0
  3 27  1  0  0  0  0
  4  5  1  0  0  0  0
  4 22  1  0  0  0  0
  5  6  1  0  0  0  0
  5 28  1  0  0  0  0
  6  7  2  0  0  0  0
  6  8  1  0  0  0  0
  8 20  2  0  0  0  0
  8  9  1  0  0  0  0
  9 10  1  0  0  0  0
 10 11  1  0  0  0  0
 10 19  2  0  0  0  0
 11 12  1  0  0  0  0
 11 29  1  0  0  0  0
 12 17  2  0  0  0  0
 12 13  1  0  0  0  0
 13 14  2  0  0  0  0
 13 30  1  0  0  0  0
 14 15  1  0  0  0  0
 14 31  1  0  0  0  0
 15 16  2  0  0  0  0
 15 32  1  0  0  0  0
 16 17  1  0  0  0  0
 16 33  1  0  0  0  0
 17 18  1  0  0  0  0
 19 20  1  0  0  0  0
 20 21  1  0  0  0  0
 21 34  1  0  0  0  0
 21 35  1  0  0  0  0
 22 23  1  0  0  0  0
M  END
$$$$
