ZINC000000040636      none
 OpenBabel11202420153D

 30 31  0  0  0  0  0  0  0  0999 V2000
   31.3552   35.9280   61.6523 C   0  0  0  0  0  0  0  0  0  0  0  0
   31.8884   36.5438   60.4347 N   0  0  0  0  0  0  0  0  0  0  0  0
   32.1900   37.7852   60.3051 N   0  0  0  0  0  0  0  0  0  0  0  0
   32.6415   38.0394   59.1052 C   0  0  0  0  0  0  0  0  0  0  0  0
   32.6330   36.8387   58.3776 C   0  0  0  0  0  0  0  0  0  0  0  0
   33.0321   36.6460   57.0541 N   0  0  0  0  0  0  0  0  0  0  0  0
   33.4889   37.6867   56.3298 C   0  0  0  0  0  0  0  0  0  0  0  0
   33.5536   38.7931   56.8292 O   0  0  0  0  0  0  0  0  0  0  0  0
   33.9057   37.4840   54.9262 C   0  0  0  0  0  0  0  0  0  0  0  0
   33.3469   36.4514   54.1711 C   0  0  0  0  0  0  0  0  0  0  0  0
   33.7371   36.2704   52.8604 C   0  0  0  0  0  0  0  0  0  0  0  0
   34.6876   37.1033   52.2970 C   0  0  0  0  0  0  0  0  0  0  0  0
   35.2489   38.1257   53.0413 C   0  0  0  0  0  0  0  0  0  0  0  0
   34.8641   38.3208   54.3517 C   0  0  0  0  0  0  0  0  0  0  0  0
   32.1353   35.8829   59.2584 C   0  0  0  0  0  0  0  0  0  0  0  0
   31.9210   34.4587   58.9854 C   0  0  0  0  0  0  0  0  0  0  0  0
   32.9086   33.5717   59.2184 N   0  0  0  0  0  0  0  0  0  0  0  0
   30.8512   34.0772   58.5483 O   0  0  0  0  0  0  0  0  0  0  0  0
   30.2720   36.0475   61.6756 H   0  0  0  0  0  0  0  0  0  0  0  0
   31.6040   34.8669   61.6617 H   0  0  0  0  0  0  0  0  0  0  0  0
   31.7930   36.4115   62.5257 H   0  0  0  0  0  0  0  0  0  0  0  0
   32.9644   39.0027   58.7384 H   0  0  0  0  0  0  0  0  0  0  0  0
   32.9806   35.7632   56.6555 H   0  0  0  0  0  0  0  0  0  0  0  0
   32.6079   35.7980   54.6111 H   0  0  0  0  0  0  0  0  0  0  0  0
   33.3026   35.4744   52.2738 H   0  0  0  0  0  0  0  0  0  0  0  0
   34.9929   36.9545   51.2718 H   0  0  0  0  0  0  0  0  0  0  0  0
   35.9903   38.7724   52.5956 H   0  0  0  0  0  0  0  0  0  0  0  0
   35.3035   39.1186   54.9318 H   0  0  0  0  0  0  0  0  0  0  0  0
   33.7349   33.8641   59.6341 H   0  0  0  0  0  0  0  0  0  0  0  0
   32.7933   32.6410   58.9704 H   0  0  0  0  0  0  0  0  0  0  0  0
  1  2  1  0  0  0  0
  1 19  1  0  0  0  0
  1 20  1  0  0  0  0
  1 21  1  0  0  0  0
  2 15  1  0  0  0  0
  2  3  1  0  0  0  0
  3  4  2  0  0  0  0
  4  5  1  0  0  0  0
  4 22  1  0  0  0  0
  5  6  1  0  0  0  0
  5 15  2  0  0  0  0
  6  7  1  0  0  0  0
  6 23  1  0  0  0  0
  7  8  2  0  0  0  0
  7  9  1  0  0  0  0
  9 14  2  0  0  0  0
  9 10  1  0  0  0  0
 10 11  2  0  0  0  0
 10 24  1  0  0  0  0
 11 12  1  0  0  0  0
 11 25  1  0  0  0  0
 12 13  2  0  0  0  0
 12 26  1  0  0  0  0
 13 14  1  0  0  0  0
 13 27  1  0  0  0  0
 14 28  1  0  0  0  0
 15 16  1  0  0  0  0
 16 17  1  0  0  0  0
 16 18  2  0  0  0  0
 17 29  1  0  0  0  0
 17 30  1  0  0  0  0
M  END
$$$$
