ZINC000000029365      none
 OpenBabel11202420163D

 29 30  0  0  1  0  0  0  0  0999 V2000
   32.3588   35.4927   53.8922 C   0  0  0  0  0  0  0  0  0  0  0  0
   33.5606   35.3094   54.8212 C   0  0  1  0  0  0  0  0  0  0  0  0
   34.3212   36.0527   54.5823 H   0  0  0  0  0  0  0  0  0  0  0  0
   33.1329   35.4780   56.2122 N   0  0  0  0  0  0  0  0  0  0  0  0
   33.1636   36.6983   56.7835 C   0  0  0  0  0  0  0  0  0  0  0  0
   33.5466   37.6602   56.1437 O   0  0  0  0  0  0  0  0  0  0  0  0
   32.7359   36.8670   58.1753 C   0  0  0  0  0  0  0  0  0  0  0  0
   32.7157   38.0490   58.8607 C   0  0  0  0  0  0  0  0  0  0  0  0
   32.2685   37.9198   60.1542 C   0  0  0  0  0  0  0  0  0  0  0  0
   31.9335   36.6762   60.5175 C   0  0  0  0  0  0  0  0  0  0  0  0
   32.1591   35.5821   59.2280 S   0  0  0  0  0  0  0  0  0  0  0  0
   34.1328   33.9276   54.6355 C   0  0  0  0  0  0  0  0  0  0  0  0
   34.7575   33.2906   55.6913 C   0  0  0  0  0  0  0  0  0  0  0  0
   35.2819   32.0230   55.5210 C   0  0  0  0  0  0  0  0  0  0  0  0
   35.1813   31.3923   54.2951 C   0  0  0  0  0  0  0  0  0  0  0  0
   34.5562   32.0291   53.2394 C   0  0  0  0  0  0  0  0  0  0  0  0
   34.0333   33.2975   53.4091 C   0  0  0  0  0  0  0  0  0  0  0  0
   31.9449   36.4922   54.0266 H   0  0  0  0  0  0  0  0  0  0  0  0
   32.6769   35.3673   52.8573 H   0  0  0  0  0  0  0  0  0  0  0  0
   31.5981   34.7495   54.1312 H   0  0  0  0  0  0  0  0  0  0  0  0
   32.8277   34.7113   56.7221 H   0  0  0  0  0  0  0  0  0  0  0  0
   33.0210   38.9908   58.4292 H   0  0  0  0  0  0  0  0  0  0  0  0
   32.1927   38.7607   60.8278 H   0  0  0  0  0  0  0  0  0  0  0  0
   31.5644   36.4026   61.4949 H   0  0  0  0  0  0  0  0  0  0  0  0
   34.8355   33.7831   56.6493 H   0  0  0  0  0  0  0  0  0  0  0  0
   35.7700   31.5252   56.3459 H   0  0  0  0  0  0  0  0  0  0  0  0
   35.5950   30.4037   54.1607 H   0  0  0  0  0  0  0  0  0  0  0  0
   34.4779   31.5366   52.2814 H   0  0  0  0  0  0  0  0  0  0  0  0
   33.5455   33.7953   52.5841 H   0  0  0  0  0  0  0  0  0  0  0  0
  1  2  1  0  0  0  0
  1 18  1  0  0  0  0
  1 19  1  0  0  0  0
  1 20  1  0  0  0  0
  2  3  1  6  0  0  0
  2  4  1  0  0  0  0
  2 12  1  0  0  0  0
  4  5  1  0  0  0  0
  4 21  1  0  0  0  0
  5  6  2  0  0  0  0
  5  7  1  0  0  0  0
  7 11  1  0  0  0  0
  7  8  2  0  0  0  0
  8  9  1  0  0  0  0
  8 22  1  0  0  0  0
  9 10  2  0  0  0  0
  9 23  1  0  0  0  0
 10 11  1  0  0  0  0
 10 24  1  0  0  0  0
 12 17  2  0  0  0  0
 12 13  1  0  0  0  0
 13 14  2  0  0  0  0
 13 25  1  0  0  0  0
 14 15  1  0  0  0  0
 14 26  1  0  0  0  0
 15 16  2  0  0  0  0
 15 27  1  0  0  0  0
 16 17  1  0  0  0  0
 16 28  1  0  0  0  0
 17 29  1  0  0  0  0
M  END
$$$$
