ZINC000000009280      none
 OpenBabel11202420153D

 38 41  0  0  1  0  0  0  0  0999 V2000
   29.6599   36.6394   69.7707 C   0  0  0  0  0  0  0  0  0  0  0  0
   29.2179   37.4917   68.6091 C   0  0  0  0  0  0  0  0  0  0  0  0
   28.5656   38.6149   68.8307 N   0  0  0  0  0  0  0  0  0  0  0  0
   28.1613   39.3877   67.8157 C   0  0  0  0  0  0  0  0  0  0  0  0
   27.4989   40.5393   67.7785 N   0  0  0  0  0  0  0  0  0  0  0  0
   27.3310   40.9193   66.5178 C   0  0  0  0  0  0  0  0  0  0  0  0
   27.8731   40.0353   65.7159 N   0  0  0  0  0  0  0  0  0  0  0  0
   28.4199   39.0306   66.5236 N   0  0  0  0  0  0  0  0  0  0  0  0
   29.0996   37.8745   66.2469 C   0  0  0  0  0  0  0  0  0  0  0  0
   29.5005   37.0899   67.3100 C   0  0  0  0  0  0  0  0  0  0  0  0
   30.2137   35.8756   66.7527 C   0  0  0  0  0  0  0  0  0  0  0  0
   29.7901   35.8938   65.2648 C   0  0  0  0  0  0  0  0  0  0  0  0
   29.4782   37.3226   65.0413 N   0  0  0  0  0  0  0  0  0  0  0  0
   30.6345   38.0320   64.4775 C   0  0  2  0  0  0  0  0  0  0  0  0
   31.4736   37.9674   65.1704 H   0  0  0  0  0  0  0  0  0  0  0  0
   30.2714   39.5011   64.2521 C   0  0  0  0  0  0  0  0  0  0  0  0
   31.0185   37.4021   63.1634 C   0  0  0  0  0  0  0  0  0  0  0  0
   31.9372   36.3696   63.1341 C   0  0  0  0  0  0  0  0  0  0  0  0
   32.2860   35.7889   61.9292 C   0  0  0  0  0  0  0  0  0  0  0  0
   31.7230   36.2468   60.7526 C   0  0  0  0  0  0  0  0  0  0  0  0
   30.8083   37.2827   60.7814 C   0  0  0  0  0  0  0  0  0  0  0  0
   30.4562   37.8606   61.9867 C   0  0  0  0  0  0  0  0  0  0  0  0
   30.6575   36.9448   70.0866 H   0  0  0  0  0  0  0  0  0  0  0  0
   28.9624   36.7641   70.5991 H   0  0  0  0  0  0  0  0  0  0  0  0
   29.6794   35.5929   69.4667 H   0  0  0  0  0  0  0  0  0  0  0  0
   26.8254   41.8195   66.2012 H   0  0  0  0  0  0  0  0  0  0  0  0
   29.8685   34.9650   67.2425 H   0  0  0  0  0  0  0  0  0  0  0  0
   31.2940   35.9829   66.8491 H   0  0  0  0  0  0  0  0  0  0  0  0
   28.9071   35.2749   65.1056 H   0  0  0  0  0  0  0  0  0  0  0  0
   30.6111   35.5716   64.6243 H   0  0  0  0  0  0  0  0  0  0  0  0
   29.9937   39.9566   65.2027 H   0  0  0  0  0  0  0  0  0  0  0  0
   31.1293   40.0274   63.8338 H   0  0  0  0  0  0  0  0  0  0  0  0
   29.4324   39.5657   63.5594 H   0  0  0  0  0  0  0  0  0  0  0  0
   32.3799   36.0145   64.0530 H   0  0  0  0  0  0  0  0  0  0  0  0
   33.0005   34.9793   61.9067 H   0  0  0  0  0  0  0  0  0  0  0  0
   31.9977   35.7947   59.8109 H   0  0  0  0  0  0  0  0  0  0  0  0
   30.3685   37.6404   59.8621 H   0  0  0  0  0  0  0  0  0  0  0  0
   29.7415   38.6700   62.0092 H   0  0  0  0  0  0  0  0  0  0  0  0
  1  2  1  0  0  0  0
  1 23  1  0  0  0  0
  1 24  1  0  0  0  0
  1 25  1  0  0  0  0
  2 10  1  0  0  0  0
  2  3  2  0  0  0  0
  3  4  1  0  0  0  0
  4  8  1  0  0  0  0
  4  5  2  0  0  0  0
  5  6  1  0  0  0  0
  6  7  2  0  0  0  0
  6 26  1  0  0  0  0
  7  8  1  0  0  0  0
  8  9  1  0  0  0  0
  9 13  1  0  0  0  0
  9 10  2  0  0  0  0
 10 11  1  0  0  0  0
 11 12  1  0  0  0  0
 11 27  1  0  0  0  0
 11 28  1  0  0  0  0
 12 13  1  0  0  0  0
 12 29  1  0  0  0  0
 12 30  1  0  0  0  0
 13 14  1  0  0  0  0
 14 15  1  1  0  0  0
 14 16  1  0  0  0  0
 14 17  1  0  0  0  0
 16 31  1  0  0  0  0
 16 32  1  0  0  0  0
 16 33  1  0  0  0  0
 17 22  2  0  0  0  0
 17 18  1  0  0  0  0
 18 19  2  0  0  0  0
 18 34  1  0  0  0  0
 19 20  1  0  0  0  0
 19 35  1  0  0  0  0
 20 21  2  0  0  0  0
 20 36  1  0  0  0  0
 21 22  1  0  0  0  0
 21 37  1  0  0  0  0
 22 38  1  0  0  0  0
M  END
$$$$
