ZINC000000032489      none
 OpenBabel11202420153D

 42 45  0  0  1  0  0  0  0  0999 V2000
   31.4326   33.2106   61.5771 S   0  0  0  0  0  0  0  0  0  0  0  0
   30.9627   34.5354   62.5545 C   0  0  0  0  0  0  0  0  0  0  0  0
   30.2575   34.4354   63.6878 N   0  0  0  0  0  0  0  0  0  0  0  0
   30.0268   35.5223   64.2319 N   0  0  0  0  0  0  0  0  0  0  0  0
   30.6387   36.5752   63.4054 C   0  0  1  0  0  0  0  0  0  0  0  0
   31.7068   37.3306   64.1987 C   0  0  0  0  0  0  0  0  0  0  0  0
   31.0337   38.3600   65.1087 C   0  0  0  0  0  0  0  0  0  0  0  0
   32.1019   39.1153   65.9018 C   0  0  0  0  0  0  0  0  0  0  0  0
   32.8997   38.1259   66.7536 C   0  0  0  0  0  0  0  0  0  0  0  0
   33.5728   37.0966   65.8436 C   0  0  0  0  0  0  0  0  0  0  0  0
   32.5046   36.3412   65.0504 C   0  0  0  0  0  0  0  0  0  0  0  0
   31.2510   35.8287   62.2896 N   0  0  0  0  0  0  0  0  0  0  0  0
   31.9686   36.3440   61.2023 N   0  0  0  0  0  0  0  0  0  0  0  0
   31.6990   37.5326   60.7499 C   0  0  0  0  0  0  0  0  0  0  0  0
   32.3547   38.0203   59.5266 C   0  0  0  0  0  0  0  0  0  0  0  0
   32.6489   39.3136   59.2214 C   0  0  0  0  0  0  0  0  0  0  0  0
   33.2581   39.3709   58.0038 N   0  0  0  0  0  0  0  0  0  0  0  0
   33.5636   40.1852   57.5743 H   0  0  0  0  0  0  0  0  0  0  0  0
   33.3727   38.1060   57.4670 C   0  0  0  0  0  0  0  0  0  0  0  0
   33.8997   37.6227   56.2732 C   0  0  0  0  0  0  0  0  0  0  0  0
   33.8718   36.2715   56.0069 C   0  0  0  0  0  0  0  0  0  0  0  0
   33.3217   35.3820   56.9192 C   0  0  0  0  0  0  0  0  0  0  0  0
   32.7947   35.8405   58.1060 C   0  0  0  0  0  0  0  0  0  0  0  0
   32.8159   37.2047   58.3891 C   0  0  0  0  0  0  0  0  0  0  0  0
   29.8786   37.2634   63.0357 H   0  0  0  0  0  0  0  0  0  0  0  0
   32.3793   37.8403   63.5086 H   0  0  0  0  0  0  0  0  0  0  0  0
   30.3613   37.8501   65.7988 H   0  0  0  0  0  0  0  0  0  0  0  0
   30.4654   39.0648   64.5018 H   0  0  0  0  0  0  0  0  0  0  0  0
   31.6223   39.8486   66.5502 H   0  0  0  0  0  0  0  0  0  0  0  0
   32.7742   39.6252   65.2118 H   0  0  0  0  0  0  0  0  0  0  0  0
   33.6606   38.6641   67.3187 H   0  0  0  0  0  0  0  0  0  0  0  0
   32.2273   37.6162   67.4437 H   0  0  0  0  0  0  0  0  0  0  0  0
   34.2451   37.6064   65.1535 H   0  0  0  0  0  0  0  0  0  0  0  0
   34.1411   36.3917   66.4505 H   0  0  0  0  0  0  0  0  0  0  0  0
   31.8323   35.8314   65.7405 H   0  0  0  0  0  0  0  0  0  0  0  0
   32.9842   35.6079   64.4021 H   0  0  0  0  0  0  0  0  0  0  0  0
   30.9937   38.1619   61.2721 H   0  0  0  0  0  0  0  0  0  0  0  0
   32.4341   40.1653   59.8499 H   0  0  0  0  0  0  0  0  0  0  0  0
   34.3305   38.3062   55.5565 H   0  0  0  0  0  0  0  0  0  0  0  0
   34.2823   35.9008   55.0793 H   0  0  0  0  0  0  0  0  0  0  0  0
   33.3066   34.3252   56.6972 H   0  0  0  0  0  0  0  0  0  0  0  0
   32.3665   35.1461   58.8139 H   0  0  0  0  0  0  0  0  0  0  0  0
  1  2  2  0  0  0  0
  2 12  1  0  0  0  0
  2  3  1  0  0  0  0
  3  4  2  0  0  0  0
  4  5  1  0  0  0  0
  5  6  1  0  0  0  0
  5 12  1  0  0  0  0
  5 25  1  6  0  0  0
  6 11  1  0  0  0  0
  6  7  1  0  0  0  0
  6 26  1  0  0  0  0
  7  8  1  0  0  0  0
  7 27  1  0  0  0  0
  7 28  1  0  0  0  0
  8  9  1  0  0  0  0
  8 29  1  0  0  0  0
  8 30  1  0  0  0  0
  9 10  1  0  0  0  0
  9 31  1  0  0  0  0
  9 32  1  0  0  0  0
 10 11  1  0  0  0  0
 10 33  1  0  0  0  0
 10 34  1  0  0  0  0
 11 35  1  0  0  0  0
 11 36  1  0  0  0  0
 12 13  1  0  0  0  0
 13 14  2  0  0  0  0
 14 15  1  0  0  0  0
 14 37  1  0  0  0  0
 15 24  1  0  0  0  0
 15 16  2  0  0  0  0
 16 17  1  0  0  0  0
 16 38  1  0  0  0  0
 17 18  1  0  0  0  0
 17 19  1  0  0  0  0
 19 24  2  0  0  0  0
 19 20  1  0  0  0  0
 20 21  2  0  0  0  0
 20 39  1  0  0  0  0
 21 22  1  0  0  0  0
 21 40  1  0  0  0  0
 22 23  2  0  0  0  0
 22 41  1  0  0  0  0
 23 24  1  0  0  0  0
 23 42  1  0  0  0  0
M  END
$$$$
