ZINC000000017809      none
 OpenBabel11202420153D

 29 30  0  0  0  0  0  0  0  0999 V2000
   29.1598   36.5112   59.8305 C   0  0  0  0  0  0  0  0  0  0  0  0
   30.1014   36.4941   61.0071 C   0  0  0  0  0  0  0  0  0  0  0  0
   29.6393   36.1299   62.2569 C   0  0  0  0  0  0  0  0  0  0  0  0
   30.5006   36.1194   63.3382 C   0  0  0  0  0  0  0  0  0  0  0  0
   31.8296   36.4685   63.1713 C   0  0  0  0  0  0  0  0  0  0  0  0
   32.9078   36.4539   64.5319 Cl  0  0  0  0  0  0  0  0  0  0  0  0
   32.2990   36.8281   61.9221 C   0  0  0  0  0  0  0  0  0  0  0  0
   31.4354   36.8394   60.8346 C   0  0  0  0  0  0  0  0  0  0  0  0
   31.9070   37.2033   59.5689 N   0  0  0  0  0  0  0  0  0  0  0  0
   32.3940   36.2629   58.7353 C   0  0  0  0  0  0  0  0  0  0  0  0
   32.4354   34.6231   59.2254 S   0  0  0  0  0  0  0  0  0  0  0  0
   32.8484   36.6135   57.5159 N   0  0  0  0  0  0  0  0  0  0  0  0
   33.3519   35.6415   56.6541 C   0  0  0  0  0  0  0  0  0  0  0  0
   33.8223   36.0018   55.3940 C   0  0  0  0  0  0  0  0  0  0  0  0
   34.2988   35.0781   54.5810 N   0  0  0  0  0  0  0  0  0  0  0  0
   34.3298   33.8119   54.9618 C   0  0  0  0  0  0  0  0  0  0  0  0
   33.8589   33.4501   56.2098 C   0  0  0  0  0  0  0  0  0  0  0  0
   33.3848   34.3706   57.0321 N   0  0  0  0  0  0  0  0  0  0  0  0
   29.1615   35.5330   59.3496 H   0  0  0  0  0  0  0  0  0  0  0  0
   28.1524   36.7450   60.1748 H   0  0  0  0  0  0  0  0  0  0  0  0
   29.4845   37.2677   59.1163 H   0  0  0  0  0  0  0  0  0  0  0  0
   28.6028   35.8571   62.3904 H   0  0  0  0  0  0  0  0  0  0  0  0
   30.1358   35.8387   64.3151 H   0  0  0  0  0  0  0  0  0  0  0  0
   33.3361   37.0998   61.7919 H   0  0  0  0  0  0  0  0  0  0  0  0
   31.8835   38.1325   59.2912 H   0  0  0  0  0  0  0  0  0  0  0  0
   32.8249   37.5427   57.2381 H   0  0  0  0  0  0  0  0  0  0  0  0
   33.7976   37.0355   55.0826 H   0  0  0  0  0  0  0  0  0  0  0  0
   34.7200   33.0582   54.2941 H   0  0  0  0  0  0  0  0  0  0  0  0
   33.8821   32.4145   56.5154 H   0  0  0  0  0  0  0  0  0  0  0  0
  1  2  1  0  0  0  0
  1 19  1  0  0  0  0
  1 20  1  0  0  0  0
  1 21  1  0  0  0  0
  2  8  2  0  0  0  0
  2  3  1  0  0  0  0
  3  4  2  0  0  0  0
  3 22  1  0  0  0  0
  4  5  1  0  0  0  0
  4 23  1  0  0  0  0
  5  6  1  0  0  0  0
  5  7  2  0  0  0  0
  7  8  1  0  0  0  0
  7 24  1  0  0  0  0
  8  9  1  0  0  0  0
  9 10  1  0  0  0  0
  9 25  1  0  0  0  0
 10 11  2  0  0  0  0
 10 12  1  0  0  0  0
 12 13  1  0  0  0  0
 12 26  1  0  0  0  0
 13 18  2  0  0  0  0
 13 14  1  0  0  0  0
 14 15  2  0  0  0  0
 14 27  1  0  0  0  0
 15 16  1  0  0  0  0
 16 17  2  0  0  0  0
 16 28  1  0  0  0  0
 17 18  1  0  0  0  0
 17 29  1  0  0  0  0
M  END
$$$$
