ZINC000000008912      none
 OpenBabel11202420153D

 26 26  0  0  1  0  0  0  0  0999 V2000
   33.0092   40.7047   68.4260 N   0  3  0  0  0  0  0  0  0  0  0  0
   33.7634   40.1400   68.7872 H   0  0  0  0  0  0  0  0  0  0  0  0
   33.3856   41.5466   68.0165 H   0  0  0  0  0  0  0  0  0  0  0  0
   32.3814   40.9480   69.1776 H   0  0  0  0  0  0  0  0  0  0  0  0
   32.2772   39.9471   67.4022 C   0  0  0  0  0  0  0  0  0  0  0  0
   31.1201   40.7951   66.8703 C   0  0  2  0  0  0  0  0  0  0  0  0
   31.4992   41.5089   66.1388 H   0  0  0  0  0  0  0  0  0  0  0  0
   30.4669   41.5509   68.0292 C   0  0  0  0  0  0  0  0  0  0  0  0
   30.3881   40.6507   69.2351 C   0  0  0  0  0  0  0  0  0  0  0  0
   29.4089   39.9444   69.4057 O   0  0  0  0  0  0  0  0  0  0  0  0
   31.3056   40.6247   70.0375 O   0  0  0  0  0  1  0  0  0  0  0  0
   30.0844   39.8857   66.2061 C   0  0  0  0  0  0  0  0  0  0  0  0
   30.7279   39.1414   65.0646 C   0  0  0  0  0  0  0  0  0  0  0  0
   31.3316   37.9423   65.1483 C   0  0  0  0  0  0  0  0  0  0  0  0
   31.7898   37.6229   63.8494 C   0  0  0  0  0  0  0  0  0  0  0  0
   31.4388   38.6460   63.0499 C   0  0  0  0  0  0  0  0  0  0  0  0
   30.7907   39.5602   63.7902 O   0  0  0  0  0  0  0  0  0  0  0  0
   31.8839   39.0300   67.8408 H   0  0  0  0  0  0  0  0  0  0  0  0
   32.9516   39.6979   66.5831 H   0  0  0  0  0  0  0  0  0  0  0  0
   29.4623   41.8605   67.7406 H   0  0  0  0  0  0  0  0  0  0  0  0
   31.0629   42.4309   68.2710 H   0  0  0  0  0  0  0  0  0  0  0  0
   29.7054   39.1720   66.9376 H   0  0  0  0  0  0  0  0  0  0  0  0
   29.2601   40.4899   65.8272 H   0  0  0  0  0  0  0  0  0  0  0  0
   31.4440   37.3389   66.0370 H   0  0  0  0  0  0  0  0  0  0  0  0
   32.3203   36.7292   63.5558 H   0  0  0  0  0  0  0  0  0  0  0  0
   31.6393   38.7177   61.9911 H   0  0  0  0  0  0  0  0  0  0  0  0
  1  2  1  0  0  0  0
  1  3  1  0  0  0  0
  1  4  1  0  0  0  0
  1  5  1  0  0  0  0
  5  6  1  0  0  0  0
  5 18  1  0  0  0  0
  5 19  1  0  0  0  0
  6  7  1  6  0  0  0
  6  8  1  0  0  0  0
  6 12  1  0  0  0  0
  8  9  1  0  0  0  0
  8 20  1  0  0  0  0
  8 21  1  0  0  0  0
  9 10  2  0  0  0  0
  9 11  1  0  0  0  0
 12 13  1  0  0  0  0
 12 22  1  0  0  0  0
 12 23  1  0  0  0  0
 13 17  1  0  0  0  0
 13 14  2  0  0  0  0
 14 15  1  0  0  0  0
 14 24  1  0  0  0  0
 15 16  2  0  0  0  0
 15 25  1  0  0  0  0
 16 17  1  0  0  0  0
 16 26  1  0  0  0  0
M  CHG  1   1   1
M  END
$$$$
