ZINC000000029099      none
 OpenBabel11202420163D

 37 40  0  0  0  0  0  0  0  0999 V2000
   32.7484   38.0806   66.1179 C   0  0  0  0  0  0  0  0  0  0  0  0
   32.0887   37.1990   65.0889 C   0  0  0  0  0  0  0  0  0  0  0  0
   32.7241   36.3231   64.2915 C   0  0  0  0  0  0  0  0  0  0  0  0
   31.6927   35.6887   63.4620 C   0  0  0  0  0  0  0  0  0  0  0  0
   31.8936   34.6574   62.4385 C   0  0  0  0  0  0  0  0  0  0  0  0
   32.1278   35.0166   61.1484 C   0  0  0  0  0  0  0  0  0  0  0  0
   32.2229   33.9603   59.7282 S   0  0  0  0  0  0  0  0  0  0  0  0
   32.5408   35.2792   58.5877 C   0  0  0  0  0  0  0  0  0  0  0  0
   32.7587   35.5112   57.3136 N   0  0  0  0  0  0  0  0  0  0  0  0
   32.9445   36.8410   57.1191 C   0  0  0  0  0  0  0  0  0  0  0  0
   33.2060   37.6210   55.9884 C   0  0  0  0  0  0  0  0  0  0  0  0
   33.3473   38.9848   56.1193 C   0  0  0  0  0  0  0  0  0  0  0  0
   33.2323   39.5905   57.3614 C   0  0  0  0  0  0  0  0  0  0  0  0
   32.9741   38.8323   58.4868 C   0  0  0  0  0  0  0  0  0  0  0  0
   32.8303   37.4607   58.3698 C   0  0  0  0  0  0  0  0  0  0  0  0
   32.5706   36.4423   59.3035 N   0  0  0  0  0  0  0  0  0  0  0  0
   32.3632   36.3551   60.6242 C   0  0  0  0  0  0  0  0  0  0  0  0
   32.3708   37.3369   61.3439 O   0  0  0  0  0  0  0  0  0  0  0  0
   30.4949   36.2630   63.8397 C   0  0  0  0  0  0  0  0  0  0  0  0
   29.1387   35.9398   63.2677 C   0  0  0  0  0  0  0  0  0  0  0  0
   30.7520   37.1637   64.8189 N   0  0  0  0  0  0  0  0  0  0  0  0
   29.7397   37.9824   65.4906 C   0  0  0  0  0  0  0  0  0  0  0  0
   32.7837   37.5590   67.0743 H   0  0  0  0  0  0  0  0  0  0  0  0
   33.7622   38.3185   65.7961 H   0  0  0  0  0  0  0  0  0  0  0  0
   32.1763   39.0019   66.2274 H   0  0  0  0  0  0  0  0  0  0  0  0
   33.7851   36.1225   64.2686 H   0  0  0  0  0  0  0  0  0  0  0  0
   31.8554   33.6128   62.7098 H   0  0  0  0  0  0  0  0  0  0  0  0
   33.2969   37.1565   55.0177 H   0  0  0  0  0  0  0  0  0  0  0  0
   33.5494   39.5880   55.2466 H   0  0  0  0  0  0  0  0  0  0  0  0
   33.3448   40.6610   57.4494 H   0  0  0  0  0  0  0  0  0  0  0  0
   32.8854   39.3070   59.4528 H   0  0  0  0  0  0  0  0  0  0  0  0
   28.9354   36.5964   62.4216 H   0  0  0  0  0  0  0  0  0  0  0  0
   28.3768   36.0872   64.0333 H   0  0  0  0  0  0  0  0  0  0  0  0
   29.1228   34.9021   62.9343 H   0  0  0  0  0  0  0  0  0  0  0  0
   29.3645   37.4510   66.3653 H   0  0  0  0  0  0  0  0  0  0  0  0
   30.1850   38.9271   65.8026 H   0  0  0  0  0  0  0  0  0  0  0  0
   28.9163   38.1782   64.8036 H   0  0  0  0  0  0  0  0  0  0  0  0
  1  2  1  0  0  0  0
  1 23  1  0  0  0  0
  1 24  1  0  0  0  0
  1 25  1  0  0  0  0
  2 21  1  0  0  0  0
  2  3  2  0  0  0  0
  3  4  1  0  0  0  0
  3 26  1  0  0  0  0
  4  5  1  0  0  0  0
  4 19  2  0  0  0  0
  5  6  2  0  0  0  0
  5 27  1  0  0  0  0
  6 17  1  0  0  0  0
  6  7  1  0  0  0  0
  7  8  1  0  0  0  0
  8 16  1  0  0  0  0
  8  9  2  0  0  0  0
  9 10  1  0  0  0  0
 10 15  2  0  0  0  0
 10 11  1  0  0  0  0
 11 12  2  0  0  0  0
 11 28  1  0  0  0  0
 12 13  1  0  0  0  0
 12 29  1  0  0  0  0
 13 14  2  0  0  0  0
 13 30  1  0  0  0  0
 14 15  1  0  0  0  0
 14 31  1  0  0  0  0
 15 16  1  0  0  0  0
 16 17  1  0  0  0  0
 17 18  2  0  0  0  0
 19 20  1  0  0  0  0
 19 21  1  0  0  0  0
 20 32  1  0  0  0  0
 20 33  1  0  0  0  0
 20 34  1  0  0  0  0
 21 22  1  0  0  0  0
 22 35  1  0  0  0  0
 22 36  1  0  0  0  0
 22 37  1  0  0  0  0
M  END
$$$$
