ZINC000000037088      none
 OpenBabel11202420153D

 35 36  0  0  0  0  0  0  0  0999 V2000
   30.7390   38.8755   64.1001 C   0  0  0  0  0  0  0  0  0  0  0  0
   31.4232   38.6441   62.8405 O   0  0  0  0  0  0  0  0  0  0  0  0
   30.8502   37.7762   61.9837 C   0  0  0  0  0  0  0  0  0  0  0  0
   29.8075   37.2278   62.2809 O   0  0  0  0  0  0  0  0  0  0  0  0
   31.4887   37.4919   60.6847 C   0  0  0  0  0  0  0  0  0  0  0  0
   31.3219   36.2428   60.0803 C   0  0  0  0  0  0  0  0  0  0  0  0
   31.9233   35.9800   58.8698 C   0  0  0  0  0  0  0  0  0  0  0  0
   32.6871   36.9583   58.2440 C   0  0  0  0  0  0  0  0  0  0  0  0
   33.2737   36.6972   57.0481 O   0  0  0  0  0  0  0  0  0  0  0  0
   32.9215   37.4811   56.0096 C   0  0  0  0  0  0  0  0  0  0  0  0
   32.1123   38.3735   56.1692 O   0  0  0  0  0  0  0  0  0  0  0  0
   33.5178   37.2559   54.6808 C   0  0  0  0  0  0  0  0  0  0  0  0
   34.2499   38.2708   54.0577 C   0  0  0  0  0  0  0  0  0  0  0  0
   34.8099   38.0513   52.8172 C   0  0  0  0  0  0  0  0  0  0  0  0
   35.7248   39.3098   52.0471 Cl  0  0  0  0  0  0  0  0  0  0  0  0
   34.6405   36.8318   52.1794 C   0  0  0  0  0  0  0  0  0  0  0  0
   33.9151   35.8234   52.7817 C   0  0  0  0  0  0  0  0  0  0  0  0
   33.3495   36.0247   54.0320 C   0  0  0  0  0  0  0  0  0  0  0  0
   32.6360   35.0345   54.6242 O   0  0  0  0  0  0  0  0  0  0  0  0
   33.3567   34.1253   55.4585 C   0  0  0  0  0  0  0  0  0  0  0  0
   32.8517   38.2034   58.8394 C   0  0  0  0  0  0  0  0  0  0  0  0
   32.2576   38.4729   60.0522 C   0  0  0  0  0  0  0  0  0  0  0  0
   30.6562   37.9360   64.6466 H   0  0  0  0  0  0  0  0  0  0  0  0
   31.3050   39.5929   64.6945 H   0  0  0  0  0  0  0  0  0  0  0  0
   29.7424   39.2714   63.9050 H   0  0  0  0  0  0  0  0  0  0  0  0
   30.7252   35.4834   60.5638 H   0  0  0  0  0  0  0  0  0  0  0  0
   31.7977   35.0139   58.4036 H   0  0  0  0  0  0  0  0  0  0  0  0
   34.3802   39.2236   54.5492 H   0  0  0  0  0  0  0  0  0  0  0  0
   35.0785   36.6700   51.2055 H   0  0  0  0  0  0  0  0  0  0  0  0
   33.7873   34.8765   52.2782 H   0  0  0  0  0  0  0  0  0  0  0  0
   32.6694   33.3854   55.8685 H   0  0  0  0  0  0  0  0  0  0  0  0
   34.1235   33.6218   54.8696 H   0  0  0  0  0  0  0  0  0  0  0  0
   33.8273   34.6752   56.2736 H   0  0  0  0  0  0  0  0  0  0  0  0
   33.4459   38.9609   58.3500 H   0  0  0  0  0  0  0  0  0  0  0  0
   32.3854   39.4409   60.5137 H   0  0  0  0  0  0  0  0  0  0  0  0
  1  2  1  0  0  0  0
  1 23  1  0  0  0  0
  1 24  1  0  0  0  0
  1 25  1  0  0  0  0
  2  3  1  0  0  0  0
  3  4  2  0  0  0  0
  3  5  1  0  0  0  0
  5 22  2  0  0  0  0
  5  6  1  0  0  0  0
  6  7  2  0  0  0  0
  6 26  1  0  0  0  0
  7  8  1  0  0  0  0
  7 27  1  0  0  0  0
  8  9  1  0  0  0  0
  8 21  2  0  0  0  0
  9 10  1  0  0  0  0
 10 11  2  0  0  0  0
 10 12  1  0  0  0  0
 12 18  2  0  0  0  0
 12 13  1  0  0  0  0
 13 14  2  0  0  0  0
 13 28  1  0  0  0  0
 14 15  1  0  0  0  0
 14 16  1  0  0  0  0
 16 17  2  0  0  0  0
 16 29  1  0  0  0  0
 17 18  1  0  0  0  0
 17 30  1  0  0  0  0
 18 19  1  0  0  0  0
 19 20  1  0  0  0  0
 20 31  1  0  0  0  0
 20 32  1  0  0  0  0
 20 33  1  0  0  0  0
 21 22  1  0  0  0  0
 21 34  1  0  0  0  0
 22 35  1  0  0  0  0
M  END
$$$$
