ZINC000000053993      none
 OpenBabel11202420153D

 27 29  0  0  0  0  0  0  0  0999 V2000
   33.5571   34.0651   54.8914 O   0  0  0  0  0  0  0  0  0  0  0  0
   33.4705   35.0779   55.5569 C   0  0  0  0  0  0  0  0  0  0  0  0
   33.7971   36.3162   55.1465 N   0  0  0  0  0  0  0  0  0  0  0  0
   33.5855   37.2211   56.1191 C   0  0  0  0  0  0  0  0  0  0  0  0
   33.7903   38.4153   56.0339 O   0  0  0  0  0  0  0  0  0  0  0  0
   33.0611   36.5175   57.3091 C   0  0  0  0  0  0  0  0  0  0  0  0
   32.6728   36.9199   58.5722 C   0  0  0  0  0  0  0  0  0  0  0  0
   32.2084   35.9676   59.4898 C   0  0  0  0  0  0  0  0  0  0  0  0
   31.7979   36.3879   60.8420 C   0  0  0  0  0  0  0  0  0  0  0  0
   30.5385   36.7650   61.2107 C   0  0  0  0  0  0  0  0  0  0  0  0
   30.5871   37.0822   62.5731 C   0  0  0  0  0  0  0  0  0  0  0  0
   31.8875   36.8832   62.9818 C   0  0  0  0  0  0  0  0  0  0  0  0
   32.4046   37.0917   64.3377 C   0  0  0  0  0  0  0  0  0  0  0  0
   33.6562   36.8677   64.5964 N   0  0  0  0  0  0  0  0  0  0  0  0
   34.1557   37.0691   65.9060 O   0  0  0  0  0  0  0  0  0  0  0  0
   32.6009   36.4583   61.9198 O   0  0  0  0  0  0  0  0  0  0  0  0
   32.1391   34.6197   59.1273 C   0  0  0  0  0  0  0  0  0  0  0  0
   32.5266   34.2166   57.8648 C   0  0  0  0  0  0  0  0  0  0  0  0
   32.9885   35.1538   56.9494 C   0  0  0  0  0  0  0  0  0  0  0  0
   34.1403   36.5292   54.2645 H   0  0  0  0  0  0  0  0  0  0  0  0
   32.7264   37.9620   58.8510 H   0  0  0  0  0  0  0  0  0  0  0  0
   29.6689   36.8100   60.5718 H   0  0  0  0  0  0  0  0  0  0  0  0
   29.7638   37.4186   63.1859 H   0  0  0  0  0  0  0  0  0  0  0  0
   31.7437   37.4318   65.1214 H   0  0  0  0  0  0  0  0  0  0  0  0
   35.0985   36.8763   66.0014 H   0  0  0  0  0  0  0  0  0  0  0  0
   31.7808   33.8898   59.8382 H   0  0  0  0  0  0  0  0  0  0  0  0
   32.4709   33.1738   57.5894 H   0  0  0  0  0  0  0  0  0  0  0  0
  1  2  2  0  0  0  0
  2 19  1  0  0  0  0
  2  3  1  0  0  0  0
  3  4  1  0  0  0  0
  3 20  1  0  0  0  0
  4  5  2  0  0  0  0
  4  6  1  0  0  0  0
  6 19  2  0  0  0  0
  6  7  1  0  0  0  0
  7  8  2  0  0  0  0
  7 21  1  0  0  0  0
  8  9  1  0  0  0  0
  8 17  1  0  0  0  0
  9 16  1  0  0  0  0
  9 10  2  0  0  0  0
 10 11  1  0  0  0  0
 10 22  1  0  0  0  0
 11 12  2  0  0  0  0
 11 23  1  0  0  0  0
 12 13  1  0  0  0  0
 12 16  1  0  0  0  0
 13 14  2  0  0  0  0
 13 24  1  0  0  0  0
 14 15  1  0  0  0  0
 15 25  1  0  0  0  0
 17 18  2  0  0  0  0
 17 26  1  0  0  0  0
 18 19  1  0  0  0  0
 18 27  1  0  0  0  0
M  END
$$$$
