ZINC000000036550      none
 OpenBabel11202420153D

 34 36  0  0  1  0  0  0  0  0999 V2000
   29.9140   35.2562   60.6816 O   0  0  0  0  0  0  0  0  0  0  0  0
   30.5468   36.4454   61.1343 S   0  0  0  0  0  0  0  0  0  0  0  0
   29.8339   37.5427   61.6880 O   0  0  0  0  0  0  0  0  0  0  0  0
   31.6518   35.9810   62.2771 N   0  0  0  0  0  0  0  0  0  0  0  0
   32.0999   36.9363   63.2935 C   0  0  2  0  0  0  0  0  0  0  0  0
   32.5711   37.7986   62.8218 H   0  0  0  0  0  0  0  0  0  0  0  0
   33.0968   36.2528   64.2878 C   0  0  0  0  0  0  0  0  0  0  0  0
   32.3773   36.3625   65.6669 C   0  0  1  0  0  0  0  0  0  0  0  0
   32.7201   35.6739   66.4393 H   0  0  0  0  0  0  0  0  0  0  0  0
   32.4483   37.8784   66.0247 C   0  0  0  0  0  0  0  0  0  0  0  0
   31.4700   38.5587   65.0401 C   0  0  0  0  0  0  0  0  0  0  0  0
   30.8999   37.3896   64.1799 C   0  0  2  0  0  0  0  0  0  0  0  0
   29.9689   37.5963   63.6521 H   0  0  0  0  0  0  0  0  0  0  0  0
   30.8716   36.2347   65.2425 C   0  0  0  0  0  0  0  0  0  0  0  0
   31.4512   37.0810   59.7623 C   0  0  0  0  0  0  0  0  0  0  0  0
   31.7626   38.4266   59.7036 C   0  0  0  0  0  0  0  0  0  0  0  0
   32.4770   38.9247   58.6304 C   0  0  0  0  0  0  0  0  0  0  0  0
   32.8705   38.0785   57.6091 C   0  0  0  0  0  0  0  0  0  0  0  0
   33.7622   38.7046   56.2576 Cl  0  0  0  0  0  0  0  0  0  0  0  0
   32.5537   36.7328   57.6656 C   0  0  0  0  0  0  0  0  0  0  0  0
   31.8442   36.2349   58.7421 C   0  0  0  0  0  0  0  0  0  0  0  0
   32.0021   35.0765   62.2736 H   0  0  0  0  0  0  0  0  0  0  0  0
   34.0451   36.7899   64.3103 H   0  0  0  0  0  0  0  0  0  0  0  0
   33.2575   35.2072   64.0251 H   0  0  0  0  0  0  0  0  0  0  0  0
   32.1267   38.0415   67.0535 H   0  0  0  0  0  0  0  0  0  0  0  0
   33.4603   38.2562   65.8794 H   0  0  0  0  0  0  0  0  0  0  0  0
   30.6674   39.0562   65.5847 H   0  0  0  0  0  0  0  0  0  0  0  0
   32.0006   39.2713   64.4087 H   0  0  0  0  0  0  0  0  0  0  0  0
   30.6524   35.2624   64.8013 H   0  0  0  0  0  0  0  0  0  0  0  0
   30.1943   36.4679   66.0640 H   0  0  0  0  0  0  0  0  0  0  0  0
   31.4515   39.0879   60.4988 H   0  0  0  0  0  0  0  0  0  0  0  0
   32.7241   39.9752   58.5869 H   0  0  0  0  0  0  0  0  0  0  0  0
   32.8604   36.0719   56.8684 H   0  0  0  0  0  0  0  0  0  0  0  0
   31.5965   35.1846   58.7861 H   0  0  0  0  0  0  0  0  0  0  0  0
  1  2  2  0  0  0  0
  2  3  2  0  0  0  0
  2  4  1  0  0  0  0
  2 15  1  0  0  0  0
  4  5  1  0  0  0  0
  4 22  1  0  0  0  0
  5  6  1  6  0  0  0
  5 12  1  0  0  0  0
  5  7  1  0  0  0  0
  7  8  1  0  0  0  0
  7 23  1  0  0  0  0
  7 24  1  0  0  0  0
  8  9  1  1  0  0  0
  8 14  1  0  0  0  0
  8 10  1  0  0  0  0
 10 11  1  0  0  0  0
 10 25  1  0  0  0  0
 10 26  1  0  0  0  0
 11 12  1  0  0  0  0
 11 27  1  0  0  0  0
 11 28  1  0  0  0  0
 12 13  1  6  0  0  0
 12 14  1  0  0  0  0
 14 29  1  0  0  0  0
 14 30  1  0  0  0  0
 15 21  2  0  0  0  0
 15 16  1  0  0  0  0
 16 17  2  0  0  0  0
 16 31  1  0  0  0  0
 17 18  1  0  0  0  0
 17 32  1  0  0  0  0
 18 19  1  0  0  0  0
 18 20  2  0  0  0  0
 20 21  1  0  0  0  0
 20 33  1  0  0  0  0
 21 34  1  0  0  0  0
M  END
$$$$
