ZINC000000031979      none
 OpenBabel11202420163D

 47 49  0  0  1  0  0  0  0  0999 V2000
   32.2350   34.1707   60.7231 C   0  0  0  0  0  0  0  0  0  0  0  0
   31.2547   33.5542   59.8858 O   0  0  0  0  0  0  0  0  0  0  0  0
   31.5233   33.5066   58.5544 C   0  0  0  0  0  0  0  0  0  0  0  0
   30.6152   32.9211   57.6835 C   0  0  0  0  0  0  0  0  0  0  0  0
   30.8904   32.8727   56.3307 C   0  0  0  0  0  0  0  0  0  0  0  0
   32.0696   33.4063   55.8444 C   0  0  0  0  0  0  0  0  0  0  0  0
   32.3676   33.3517   54.3682 C   0  0  1  0  0  0  0  0  0  0  0  0
   31.5486   32.8605   53.8429 H   0  0  0  0  0  0  0  0  0  0  0  0
   32.5548   34.7719   53.8292 C   0  0  0  0  0  0  0  0  0  0  0  0
   33.8987   35.3079   54.2341 C   0  0  0  0  0  0  0  0  0  0  0  0
   34.0994   36.7653   54.2309 C   0  0  0  0  0  0  0  0  0  0  0  0
   33.8276   37.5136   55.3804 C   0  0  0  0  0  0  0  0  0  0  0  0
   34.0136   38.8853   55.3701 C   0  0  0  0  0  0  0  0  0  0  0  0
   33.7449   39.6146   56.4851 O   0  0  0  0  0  0  0  0  0  0  0  0
   33.2742   38.9005   57.6297 C   0  0  0  0  0  0  0  0  0  0  0  0
   34.4786   39.5166   54.2249 C   0  0  0  0  0  0  0  0  0  0  0  0
   34.7506   38.7788   53.0813 C   0  0  0  0  0  0  0  0  0  0  0  0
   35.2012   39.4041   51.9620 O   0  0  0  0  0  0  0  0  0  0  0  0
   35.3716   40.8211   52.0345 C   0  0  0  0  0  0  0  0  0  0  0  0
   34.5631   37.4073   53.0785 C   0  0  0  0  0  0  0  0  0  0  0  0
   34.8891   34.5506   54.5913 N   0  0  0  0  0  0  0  0  0  0  0  0
   34.7791   33.1946   54.6478 C   0  0  0  0  0  0  0  0  0  0  0  0
   35.7301   32.4628   55.1645 N   0  0  0  0  0  4  0  0  0  0  0  0
   36.5301   32.8842   55.5156 H   0  0  0  0  0  0  0  0  0  0  0  0
   35.6361   31.4979   55.1972 H   0  0  0  0  0  0  0  0  0  0  0  0
   33.6240   32.6131   54.1383 N   0  0  0  0  0  0  0  0  0  0  0  0
   32.9787   33.9845   56.7110 C   0  0  0  0  0  0  0  0  0  0  0  0
   32.7054   34.0407   58.0640 C   0  0  0  0  0  0  0  0  0  0  0  0
   33.1789   33.6332   60.6339 H   0  0  0  0  0  0  0  0  0  0  0  0
   32.3762   35.2066   60.4151 H   0  0  0  0  0  0  0  0  0  0  0  0
   31.8973   34.1426   61.7592 H   0  0  0  0  0  0  0  0  0  0  0  0
   29.6938   32.5042   58.0628 H   0  0  0  0  0  0  0  0  0  0  0  0
   30.1840   32.4176   55.6522 H   0  0  0  0  0  0  0  0  0  0  0  0
   31.7729   35.4178   54.2285 H   0  0  0  0  0  0  0  0  0  0  0  0
   32.4857   34.7539   52.7416 H   0  0  0  0  0  0  0  0  0  0  0  0
   33.4688   37.0230   56.2732 H   0  0  0  0  0  0  0  0  0  0  0  0
   34.0213   38.1668   57.9327 H   0  0  0  0  0  0  0  0  0  0  0  0
   33.0990   39.5996   58.4475 H   0  0  0  0  0  0  0  0  0  0  0  0
   32.3435   38.3902   57.3822 H   0  0  0  0  0  0  0  0  0  0  0  0
   34.6260   40.5864   54.2226 H   0  0  0  0  0  0  0  0  0  0  0  0
   35.7350   41.1927   51.0764 H   0  0  0  0  0  0  0  0  0  0  0  0
   34.4160   41.2905   52.2675 H   0  0  0  0  0  0  0  0  0  0  0  0
   36.0940   41.0605   52.8147 H   0  0  0  0  0  0  0  0  0  0  0  0
   34.7743   36.8341   52.1877 H   0  0  0  0  0  0  0  0  0  0  0  0
   33.6428   31.7698   53.6592 H   0  0  0  0  0  0  0  0  0  0  0  0
   33.9013   34.3961   56.3294 H   0  0  0  0  0  0  0  0  0  0  0  0
   33.4135   34.4968   58.7400 H   0  0  0  0  0  0  0  0  0  0  0  0
  1  2  1  0  0  0  0
  1 29  1  0  0  0  0
  1 30  1  0  0  0  0
  1 31  1  0  0  0  0
  2  3  1  0  0  0  0
  3 28  2  0  0  0  0
  3  4  1  0  0  0  0
  4  5  2  0  0  0  0
  4 32  1  0  0  0  0
  5  6  1  0  0  0  0
  5 33  1  0  0  0  0
  6  7  1  0  0  0  0
  6 27  2  0  0  0  0
  7  8  1  6  0  0  0
  7 26  1  0  0  0  0
  7  9  1  0  0  0  0
  9 10  1  0  0  0  0
  9 34  1  0  0  0  0
  9 35  1  0  0  0  0
 10 11  1  0  0  0  0
 10 21  2  0  0  0  0
 11 20  2  0  0  0  0
 11 12  1  0  0  0  0
 12 13  2  0  0  0  0
 12 36  1  0  0  0  0
 13 14  1  0  0  0  0
 13 16  1  0  0  0  0
 14 15  1  0  0  0  0
 15 37  1  0  0  0  0
 15 38  1  0  0  0  0
 15 39  1  0  0  0  0
 16 17  2  0  0  0  0
 16 40  1  0  0  0  0
 17 18  1  0  0  0  0
 17 20  1  0  0  0  0
 18 19  1  0  0  0  0
 19 41  1  0  0  0  0
 19 42  1  0  0  0  0
 19 43  1  0  0  0  0
 20 44  1  0  0  0  0
 21 22  1  0  0  0  0
 22 23  2  0  0  0  0
 22 26  1  0  0  0  0
 23 24  1  0  0  0  0
 23 25  1  0  0  0  0
 26 45  1  0  0  0  0
 27 28  1  0  0  0  0
 27 46  1  0  0  0  0
 28 47  1  0  0  0  0
M  END
$$$$
