ZINC000000049162      none
 OpenBabel11202420153D

 39 41  0  0  0  0  0  0  0  0999 V2000
   33.3925   35.9868   55.2579 C   0  0  0  0  0  0  0  0  0  0  0  0
   33.6692   37.4337   55.5760 C   0  0  0  0  0  0  0  0  0  0  0  0
   34.1673   38.2719   54.6322 C   0  0  0  0  0  0  0  0  0  0  0  0
   34.4172   39.6231   54.9558 C   0  0  0  0  0  0  0  0  0  0  0  0
   34.8643   40.3653   54.1000 O   0  0  0  0  0  0  0  0  0  0  0  0
   34.1753   40.1105   56.1822 O   0  0  0  0  0  0  0  0  0  0  0  0
   33.6793   39.3296   57.1667 C   0  0  0  0  0  0  0  0  0  0  0  0
   33.4349   39.8525   58.4303 C   0  0  0  0  0  0  0  0  0  0  0  0
   32.9297   39.0441   59.4256 C   0  0  0  0  0  0  0  0  0  0  0  0
   32.6586   37.7009   59.1791 C   0  0  0  0  0  0  0  0  0  0  0  0
   32.1607   36.9169   60.1722 O   0  0  0  0  0  0  0  0  0  0  0  0
   31.3152   35.8333   59.7809 C   0  0  0  0  0  0  0  0  0  0  0  0
   30.8624   35.0818   61.0061 C   0  0  0  0  0  0  0  0  0  0  0  0
   31.1330   33.9061   61.1310 O   0  0  0  0  0  0  0  0  0  0  0  0
   30.1568   35.7162   61.9633 N   0  0  0  0  0  0  0  0  0  0  0  0
   29.6987   35.0019   63.1655 C   0  0  0  0  0  0  0  0  0  0  0  0
   30.1159   35.8207   64.3975 C   0  0  0  0  0  0  0  0  0  0  0  0
   29.6555   37.1656   64.2447 O   0  0  0  0  0  0  0  0  0  0  0  0
   30.2235   37.8553   63.1286 C   0  0  0  0  0  0  0  0  0  0  0  0
   29.8165   37.1420   61.8341 C   0  0  0  0  0  0  0  0  0  0  0  0
   32.8995   37.1606   57.9314 C   0  0  0  0  0  0  0  0  0  0  0  0
   33.4072   37.9740   56.9136 C   0  0  0  0  0  0  0  0  0  0  0  0
   32.3700   35.8838   54.8946 H   0  0  0  0  0  0  0  0  0  0  0  0
   34.0870   35.6443   54.4907 H   0  0  0  0  0  0  0  0  0  0  0  0
   33.5205   35.3859   56.1583 H   0  0  0  0  0  0  0  0  0  0  0  0
   34.3713   37.9067   53.6366 H   0  0  0  0  0  0  0  0  0  0  0  0
   33.6413   40.8931   58.6329 H   0  0  0  0  0  0  0  0  0  0  0  0
   32.7417   39.4566   60.4059 H   0  0  0  0  0  0  0  0  0  0  0  0
   30.4457   36.2235   59.2520 H   0  0  0  0  0  0  0  0  0  0  0  0
   31.8676   35.1601   59.1252 H   0  0  0  0  0  0  0  0  0  0  0  0
   28.6138   34.8986   63.1400 H   0  0  0  0  0  0  0  0  0  0  0  0
   30.1609   34.0156   63.2050 H   0  0  0  0  0  0  0  0  0  0  0  0
   31.2019   35.8161   64.4903 H   0  0  0  0  0  0  0  0  0  0  0  0
   29.6722   35.3836   65.2920 H   0  0  0  0  0  0  0  0  0  0  0  0
   31.3099   37.8580   63.2168 H   0  0  0  0  0  0  0  0  0  0  0  0
   29.8573   38.8818   63.1092 H   0  0  0  0  0  0  0  0  0  0  0  0
   30.3570   37.5735   60.9917 H   0  0  0  0  0  0  0  0  0  0  0  0
   28.7434   37.2505   61.6769 H   0  0  0  0  0  0  0  0  0  0  0  0
   32.6928   36.1178   57.7415 H   0  0  0  0  0  0  0  0  0  0  0  0
  1  2  1  0  0  0  0
  1 23  1  0  0  0  0
  1 24  1  0  0  0  0
  1 25  1  0  0  0  0
  2 22  1  0  0  0  0
  2  3  2  0  0  0  0
  3  4  1  0  0  0  0
  3 26  1  0  0  0  0
  4  5  2  0  0  0  0
  4  6  1  0  0  0  0
  6  7  1  0  0  0  0
  7 22  2  0  0  0  0
  7  8  1  0  0  0  0
  8  9  2  0  0  0  0
  8 27  1  0  0  0  0
  9 10  1  0  0  0  0
  9 28  1  0  0  0  0
 10 11  1  0  0  0  0
 10 21  2  0  0  0  0
 11 12  1  0  0  0  0
 12 13  1  0  0  0  0
 12 29  1  0  0  0  0
 12 30  1  0  0  0  0
 13 14  2  0  0  0  0
 13 15  1  0  0  0  0
 15 20  1  0  0  0  0
 15 16  1  0  0  0  0
 16 17  1  0  0  0  0
 16 31  1  0  0  0  0
 16 32  1  0  0  0  0
 17 18  1  0  0  0  0
 17 33  1  0  0  0  0
 17 34  1  0  0  0  0
 18 19  1  0  0  0  0
 19 20  1  0  0  0  0
 19 35  1  0  0  0  0
 19 36  1  0  0  0  0
 20 37  1  0  0  0  0
 20 38  1  0  0  0  0
 21 22  1  0  0  0  0
 21 39  1  0  0  0  0
M  END
$$$$
