ZINC000000056650      none
 OpenBabel11202420153D

 36 38  0  0  0  0  0  0  0  0999 V2000
   31.3690   38.0302   67.4288 C   0  0  0  0  0  0  0  0  0  0  0  0
   30.5636   38.4906   66.2411 C   0  0  0  0  0  0  0  0  0  0  0  0
   29.4471   39.2542   66.4060 C   0  0  0  0  0  0  0  0  0  0  0  0
   29.0303   39.6247   67.6943 N   0  0  0  0  0  0  0  0  0  0  0  0
   27.8432   39.3131   68.2449 C   0  0  0  0  0  0  0  0  0  0  0  0
   26.9613   38.6695   67.7139 O   0  0  0  0  0  0  0  0  0  0  0  0
   27.7922   39.8932   69.6052 C   0  0  0  0  0  0  0  0  0  0  0  0
   28.9643   40.5188   69.8045 C   0  0  0  0  0  0  0  0  0  0  0  0
   29.7570   40.3457   68.5670 C   0  0  0  0  0  0  0  0  0  0  0  0
   30.8735   40.7808   68.3722 O   0  0  0  0  0  0  0  0  0  0  0  0
   28.7125   39.6772   65.2719 C   0  0  0  0  0  0  0  0  0  0  0  0
   27.7185   40.3629   65.4294 O   0  0  0  0  0  0  0  0  0  0  0  0
   29.0851   39.3404   64.0276 O   0  0  0  0  0  0  0  0  0  0  0  0
   30.1786   38.5817   63.7984 C   0  0  0  0  0  0  0  0  0  0  0  0
   30.5463   38.2453   62.5047 C   0  0  0  0  0  0  0  0  0  0  0  0
   31.6731   37.4656   62.2892 C   0  0  0  0  0  0  0  0  0  0  0  0
   32.0417   37.1282   60.9891 N   0  0  0  0  0  0  0  0  0  0  0  0
   32.3543   38.1811   60.0196 C   0  0  0  0  0  0  0  0  0  0  0  0
   32.1168   35.7203   60.5911 C   0  0  0  0  0  0  0  0  0  0  0  0
   32.4401   37.0171   63.3649 C   0  0  0  0  0  0  0  0  0  0  0  0
   32.0911   37.3397   64.6438 C   0  0  0  0  0  0  0  0  0  0  0  0
   30.9566   38.1256   64.8788 C   0  0  0  0  0  0  0  0  0  0  0  0
   30.9898   37.0683   67.7739 H   0  0  0  0  0  0  0  0  0  0  0  0
   32.4149   37.9261   67.1402 H   0  0  0  0  0  0  0  0  0  0  0  0
   31.2846   38.7631   68.2311 H   0  0  0  0  0  0  0  0  0  0  0  0
   26.9719   39.8241   70.3044 H   0  0  0  0  0  0  0  0  0  0  0  0
   29.2676   41.0502   70.6945 H   0  0  0  0  0  0  0  0  0  0  0  0
   29.9575   38.5897   61.6673 H   0  0  0  0  0  0  0  0  0  0  0  0
   33.4181   38.4138   60.0664 H   0  0  0  0  0  0  0  0  0  0  0  0
   32.1011   37.8382   59.0165 H   0  0  0  0  0  0  0  0  0  0  0  0
   31.7763   39.0748   60.2549 H   0  0  0  0  0  0  0  0  0  0  0  0
   31.1395   35.2544   60.7170 H   0  0  0  0  0  0  0  0  0  0  0  0
   32.4191   35.6538   59.5460 H   0  0  0  0  0  0  0  0  0  0  0  0
   32.8479   35.2051   61.2143 H   0  0  0  0  0  0  0  0  0  0  0  0
   33.3156   36.4112   63.1840 H   0  0  0  0  0  0  0  0  0  0  0  0
   32.6886   36.9898   65.4726 H   0  0  0  0  0  0  0  0  0  0  0  0
  1  2  1  0  0  0  0
  1 23  1  0  0  0  0
  1 24  1  0  0  0  0
  1 25  1  0  0  0  0
  2 22  1  0  0  0  0
  2  3  2  0  0  0  0
  3  4  1  0  0  0  0
  3 11  1  0  0  0  0
  4  9  1  0  0  0  0
  4  5  1  0  0  0  0
  5  6  2  0  0  0  0
  5  7  1  0  0  0  0
  7  8  2  0  0  0  0
  7 26  1  0  0  0  0
  8  9  1  0  0  0  0
  8 27  1  0  0  0  0
  9 10  2  0  0  0  0
 11 12  2  0  0  0  0
 11 13  1  0  0  0  0
 13 14  1  0  0  0  0
 14 22  2  0  0  0  0
 14 15  1  0  0  0  0
 15 16  2  0  0  0  0
 15 28  1  0  0  0  0
 16 17  1  0  0  0  0
 16 20  1  0  0  0  0
 17 18  1  0  0  0  0
 17 19  1  0  0  0  0
 18 29  1  0  0  0  0
 18 30  1  0  0  0  0
 18 31  1  0  0  0  0
 19 32  1  0  0  0  0
 19 33  1  0  0  0  0
 19 34  1  0  0  0  0
 20 21  2  0  0  0  0
 20 35  1  0  0  0  0
 21 22  1  0  0  0  0
 21 36  1  0  0  0  0
M  END
$$$$
