ZINC000000023207      none
 OpenBabel11202420153D

 36 38  0  0  0  0  0  0  0  0999 V2000
   30.0302   32.5648   68.6040 C   0  0  0  0  0  0  0  0  0  0  0  0
   29.9706   34.3567   68.8794 S   0  0  0  0  0  0  0  0  0  0  0  0
   31.1077   34.7861   69.6154 O   0  0  0  0  0  0  0  0  0  0  0  0
   28.6605   34.7603   69.2536 O   0  0  0  0  0  0  0  0  0  0  0  0
   30.1999   35.0555   67.2782 C   0  0  0  0  0  0  0  0  0  0  0  0
   31.4761   35.3417   66.8277 C   0  0  0  0  0  0  0  0  0  0  0  0
   31.6616   35.8898   65.5749 C   0  0  0  0  0  0  0  0  0  0  0  0
   30.5599   36.1547   64.7628 C   0  0  0  0  0  0  0  0  0  0  0  0
   30.7526   36.7440   63.4162 C   0  0  0  0  0  0  0  0  0  0  0  0
   30.9225   35.9235   62.2995 C   0  0  0  0  0  0  0  0  0  0  0  0
   31.1047   36.5227   61.0634 C   0  0  0  0  0  0  0  0  0  0  0  0
   31.3277   35.5491   59.6435 Cl  0  0  0  0  0  0  0  0  0  0  0  0
   31.1079   37.9049   60.9699 C   0  0  0  0  0  0  0  0  0  0  0  0
   30.9412   38.6602   62.0359 N   0  0  0  0  0  0  0  0  0  0  0  0
   30.7630   38.1367   63.2411 C   0  0  0  0  0  0  0  0  0  0  0  0
   30.5800   39.0274   64.4112 C   0  0  0  0  0  0  0  0  0  0  0  0
   31.6841   39.4722   65.1457 C   0  0  0  0  0  0  0  0  0  0  0  0
   31.4594   40.2980   66.2331 C   0  0  0  0  0  0  0  0  0  0  0  0
   30.1631   40.6630   66.5492 C   0  0  0  0  0  0  0  0  0  0  0  0
   29.1415   40.2318   65.8349 N   0  0  0  0  0  0  0  0  0  0  0  0
   29.3051   39.4401   64.7949 C   0  0  0  0  0  0  0  0  0  0  0  0
   29.2759   35.8688   65.2242 C   0  0  0  0  0  0  0  0  0  0  0  0
   29.1028   35.3163   66.4769 C   0  0  0  0  0  0  0  0  0  0  0  0
   30.9960   32.2947   68.1766 H   0  0  0  0  0  0  0  0  0  0  0  0
   29.8953   32.0465   69.5534 H   0  0  0  0  0  0  0  0  0  0  0  0
   29.2352   32.2761   67.9163 H   0  0  0  0  0  0  0  0  0  0  0  0
   32.3287   35.1359   67.4577 H   0  0  0  0  0  0  0  0  0  0  0  0
   32.6584   36.1128   65.2240 H   0  0  0  0  0  0  0  0  0  0  0  0
   30.9163   34.8480   62.3974 H   0  0  0  0  0  0  0  0  0  0  0  0
   31.2499   38.3713   60.0061 H   0  0  0  0  0  0  0  0  0  0  0  0
   32.6862   39.1753   64.8734 H   0  0  0  0  0  0  0  0  0  0  0  0
   32.2875   40.6574   66.8260 H   0  0  0  0  0  0  0  0  0  0  0  0
   29.9846   41.3111   67.3945 H   0  0  0  0  0  0  0  0  0  0  0  0
   28.4436   39.1075   64.2347 H   0  0  0  0  0  0  0  0  0  0  0  0
   28.4184   36.0760   64.6011 H   0  0  0  0  0  0  0  0  0  0  0  0
   28.1088   35.0912   66.8340 H   0  0  0  0  0  0  0  0  0  0  0  0
  1  2  1  0  0  0  0
  1 24  1  0  0  0  0
  1 25  1  0  0  0  0
  1 26  1  0  0  0  0
  2  3  2  0  0  0  0
  2  4  2  0  0  0  0
  2  5  1  0  0  0  0
  5 23  2  0  0  0  0
  5  6  1  0  0  0  0
  6  7  2  0  0  0  0
  6 27  1  0  0  0  0
  7  8  1  0  0  0  0
  7 28  1  0  0  0  0
  8  9  1  0  0  0  0
  8 22  2  0  0  0  0
  9 15  2  0  0  0  0
  9 10  1  0  0  0  0
 10 11  2  0  0  0  0
 10 29  1  0  0  0  0
 11 12  1  0  0  0  0
 11 13  1  0  0  0  0
 13 14  2  0  0  0  0
 13 30  1  0  0  0  0
 14 15  1  0  0  0  0
 15 16  1  0  0  0  0
 16 21  2  0  0  0  0
 16 17  1  0  0  0  0
 17 18  2  0  0  0  0
 17 31  1  0  0  0  0
 18 19  1  0  0  0  0
 18 32  1  0  0  0  0
 19 20  2  0  0  0  0
 19 33  1  0  0  0  0
 20 21  1  0  0  0  0
 21 34  1  0  0  0  0
 22 23  1  0  0  0  0
 22 35  1  0  0  0  0
 23 36  1  0  0  0  0
M  END
$$$$
