ZINC000000051049      none
 OpenBabel11202420153D

 42 45  0  0  0  0  0  0  0  0999 V2000
   30.7703   33.8803   68.1324 N   0  0  0  0  0  0  0  0  0  0  0  0
   31.4321   34.7169   68.5231 C   0  0  0  0  0  0  0  0  0  0  0  0
   32.2661   35.7718   69.0156 C   0  0  0  0  0  0  0  0  0  0  0  0
   32.5321   35.8769   70.3828 C   0  0  0  0  0  0  0  0  0  0  0  0
   33.3361   36.8941   70.8505 C   0  0  0  0  0  0  0  0  0  0  0  0
   33.8823   37.8144   69.9709 C   0  0  0  0  0  0  0  0  0  0  0  0
   33.6281   37.7233   68.6169 C   0  0  0  0  0  0  0  0  0  0  0  0
   32.8213   36.7053   68.1278 C   0  0  0  0  0  0  0  0  0  0  0  0
   32.5631   36.6117   66.7610 N   0  0  0  0  0  0  0  0  0  0  0  0
   32.5407   37.7249   66.0016 C   0  0  0  0  0  0  0  0  0  0  0  0
   32.7453   38.8083   66.5073 O   0  0  0  0  0  0  0  0  0  0  0  0
   32.2615   37.6238   64.5242 C   0  0  0  0  0  0  0  0  0  0  0  0
   30.8810   37.0007   64.3075 C   0  0  0  0  0  0  0  0  0  0  0  0
   30.8066   36.4305   62.9172 C   0  0  0  0  0  0  0  0  0  0  0  0
   31.4174   35.2185   62.6472 C   0  0  0  0  0  0  0  0  0  0  0  0
   31.3609   34.6787   61.3768 C   0  0  0  0  0  0  0  0  0  0  0  0
   30.6922   35.3494   60.3690 C   0  0  0  0  0  0  0  0  0  0  0  0
   30.0807   36.5580   60.6326 C   0  0  0  0  0  0  0  0  0  0  0  0
   30.1350   37.1039   61.9102 C   0  0  0  0  0  0  0  0  0  0  0  0
   29.5277   38.2908   62.1493 O   0  0  0  0  0  0  0  0  0  0  0  0
   29.2027   38.6446   63.4159 C   0  0  0  0  0  0  0  0  0  0  0  0
   28.2289   39.6154   63.6214 C   0  0  0  0  0  0  0  0  0  0  0  0
   27.8841   39.9903   64.9042 C   0  0  0  0  0  0  0  0  0  0  0  0
   28.5078   39.3998   65.9880 C   0  0  0  0  0  0  0  0  0  0  0  0
   29.4749   38.4339   65.7874 C   0  0  0  0  0  0  0  0  0  0  0  0
   29.8248   38.0541   64.5034 C   0  0  0  0  0  0  0  0  0  0  0  0
   32.1122   35.1594   71.0723 H   0  0  0  0  0  0  0  0  0  0  0  0
   33.5411   36.9742   71.9079 H   0  0  0  0  0  0  0  0  0  0  0  0
   34.5106   38.6085   70.3466 H   0  0  0  0  0  0  0  0  0  0  0  0
   34.0579   38.4445   67.9376 H   0  0  0  0  0  0  0  0  0  0  0  0
   32.3995   35.7454   66.3565 H   0  0  0  0  0  0  0  0  0  0  0  0
   32.2844   38.6194   64.0811 H   0  0  0  0  0  0  0  0  0  0  0  0
   33.0203   36.9989   64.0531 H   0  0  0  0  0  0  0  0  0  0  0  0
   30.7298   36.2008   65.0323 H   0  0  0  0  0  0  0  0  0  0  0  0
   31.9406   34.6930   63.4324 H   0  0  0  0  0  0  0  0  0  0  0  0
   31.8387   33.7323   61.1706 H   0  0  0  0  0  0  0  0  0  0  0  0
   30.6481   34.9269   59.3760 H   0  0  0  0  0  0  0  0  0  0  0  0
   29.5588   37.0810   59.8448 H   0  0  0  0  0  0  0  0  0  0  0  0
   27.7415   40.0774   62.7755 H   0  0  0  0  0  0  0  0  0  0  0  0
   27.1276   40.7448   65.0614 H   0  0  0  0  0  0  0  0  0  0  0  0
   28.2383   39.6934   66.9918 H   0  0  0  0  0  0  0  0  0  0  0  0
   29.9606   37.9743   66.6356 H   0  0  0  0  0  0  0  0  0  0  0  0
  1  2  3  0  0  0  0
  2  3  1  0  0  0  0
  3  8  2  0  0  0  0
  3  4  1  0  0  0  0
  4  5  2  0  0  0  0
  4 27  1  0  0  0  0
  5  6  1  0  0  0  0
  5 28  1  0  0  0  0
  6  7  2  0  0  0  0
  6 29  1  0  0  0  0
  7  8  1  0  0  0  0
  7 30  1  0  0  0  0
  8  9  1  0  0  0  0
  9 10  1  0  0  0  0
  9 31  1  0  0  0  0
 10 11  2  0  0  0  0
 10 12  1  0  0  0  0
 12 13  1  0  0  0  0
 12 32  1  0  0  0  0
 12 33  1  0  0  0  0
 13 26  1  0  0  0  0
 13 14  1  0  0  0  0
 13 34  1  0  0  0  0
 14 19  2  0  0  0  0
 14 15  1  0  0  0  0
 15 16  2  0  0  0  0
 15 35  1  0  0  0  0
 16 17  1  0  0  0  0
 16 36  1  0  0  0  0
 17 18  2  0  0  0  0
 17 37  1  0  0  0  0
 18 19  1  0  0  0  0
 18 38  1  0  0  0  0
 19 20  1  0  0  0  0
 20 21  1  0  0  0  0
 21 26  2  0  0  0  0
 21 22  1  0  0  0  0
 22 23  2  0  0  0  0
 22 39  1  0  0  0  0
 23 24  1  0  0  0  0
 23 40  1  0  0  0  0
 24 25  2  0  0  0  0
 24 41  1  0  0  0  0
 25 26  1  0  0  0  0
 25 42  1  0  0  0  0
M  END
$$$$
