ZINC000000036933      none
 OpenBabel11202420153D

 34 36  0  0  0  0  0  0  0  0999 V2000
   33.0200   37.1216   56.4191 C   0  0  0  0  0  0  0  0  0  0  0  0
   32.2952   37.0037   57.6717 O   0  0  0  0  0  0  0  0  0  0  0  0
   32.3970   35.8325   58.3293 C   0  0  0  0  0  0  0  0  0  0  0  0
   33.0728   34.9342   57.8690 O   0  0  0  0  0  0  0  0  0  0  0  0
   31.6868   35.6406   59.6104 C   0  0  0  0  0  0  0  0  0  0  0  0
   31.7903   34.4280   60.2952 C   0  0  0  0  0  0  0  0  0  0  0  0
   31.1250   34.2558   61.4909 C   0  0  0  0  0  0  0  0  0  0  0  0
   30.3512   35.2783   62.0108 C   0  0  0  0  0  0  0  0  0  0  0  0
   30.2488   36.4863   61.3390 C   0  0  0  0  0  0  0  0  0  0  0  0
   30.9093   36.6708   60.1425 C   0  0  0  0  0  0  0  0  0  0  0  0
   29.3526   37.4007   62.1433 C   0  0  0  0  0  0  0  0  0  0  0  0
   29.3026   36.8171   63.5030 N   0  0  0  0  0  0  0  0  0  0  0  0
   30.2983   37.3613   64.3183 C   0  0  0  0  0  0  0  0  0  0  0  0
   31.6357   37.2242   63.9691 C   0  0  0  0  0  0  0  0  0  0  0  0
   32.6174   37.7672   64.7744 C   0  0  0  0  0  0  0  0  0  0  0  0
   32.2705   38.4383   65.9335 C   0  0  0  0  0  0  0  0  0  0  0  0
   33.6180   39.1748   67.0370 Br  0  0  0  0  0  0  0  0  0  0  0  0
   30.9394   38.5719   66.2866 C   0  0  0  0  0  0  0  0  0  0  0  0
   29.9530   38.0355   65.4825 C   0  0  0  0  0  0  0  0  0  0  0  0
   29.5318   35.3719   63.2785 C   0  0  0  0  0  0  0  0  0  0  0  0
   32.6661   36.3625   55.7217 H   0  0  0  0  0  0  0  0  0  0  0  0
   32.8529   38.1115   55.9943 H   0  0  0  0  0  0  0  0  0  0  0  0
   34.0852   36.9795   56.6010 H   0  0  0  0  0  0  0  0  0  0  0  0
   32.3899   33.6266   59.8892 H   0  0  0  0  0  0  0  0  0  0  0  0
   31.2048   33.3183   62.0209 H   0  0  0  0  0  0  0  0  0  0  0  0
   30.8254   37.6112   59.6180 H   0  0  0  0  0  0  0  0  0  0  0  0
   29.7747   38.4049   62.1799 H   0  0  0  0  0  0  0  0  0  0  0  0
   28.3536   37.4270   61.7080 H   0  0  0  0  0  0  0  0  0  0  0  0
   31.9073   36.6968   63.0665 H   0  0  0  0  0  0  0  0  0  0  0  0
   33.6572   37.6645   64.5012 H   0  0  0  0  0  0  0  0  0  0  0  0
   30.6714   39.0965   67.1919 H   0  0  0  0  0  0  0  0  0  0  0  0
   28.9141   38.1405   65.7585 H   0  0  0  0  0  0  0  0  0  0  0  0
   30.0804   34.9431   64.1171 H   0  0  0  0  0  0  0  0  0  0  0  0
   28.5807   34.8557   63.1480 H   0  0  0  0  0  0  0  0  0  0  0  0
  1  2  1  0  0  0  0
  1 21  1  0  0  0  0
  1 22  1  0  0  0  0
  1 23  1  0  0  0  0
  2  3  1  0  0  0  0
  3  4  2  0  0  0  0
  3  5  1  0  0  0  0
  5 10  2  0  0  0  0
  5  6  1  0  0  0  0
  6  7  2  0  0  0  0
  6 24  1  0  0  0  0
  7  8  1  0  0  0  0
  7 25  1  0  0  0  0
  8 20  1  0  0  0  0
  8  9  2  0  0  0  0
  9 10  1  0  0  0  0
  9 11  1  0  0  0  0
 10 26  1  0  0  0  0
 11 12  1  0  0  0  0
 11 27  1  0  0  0  0
 11 28  1  0  0  0  0
 12 13  1  0  0  0  0
 12 20  1  0  0  0  0
 13 19  2  0  0  0  0
 13 14  1  0  0  0  0
 14 15  2  0  0  0  0
 14 29  1  0  0  0  0
 15 16  1  0  0  0  0
 15 30  1  0  0  0  0
 16 17  1  0  0  0  0
 16 18  2  0  0  0  0
 18 19  1  0  0  0  0
 18 31  1  0  0  0  0
 19 32  1  0  0  0  0
 20 33  1  0  0  0  0
 20 34  1  0  0  0  0
M  END
$$$$
