ZINC000000027634      none
 OpenBabel11202420153D

 31 32  0  0  0  0  0  0  0  0999 V2000
   32.9367   36.7026   63.8903 S   0  0  0  0  0  0  0  0  0  0  0  0
   31.7080   37.5293   64.7493 C   0  0  0  0  0  0  0  0  0  0  0  0
   30.1700   37.8824   63.9657 S   0  0  0  0  0  0  0  0  0  0  0  0
   30.4643   37.1819   62.3893 N   0  0  0  0  0  0  0  0  0  0  0  0
   29.2008   36.8336   61.7233 C   0  0  0  0  0  0  0  0  0  0  0  0
   29.5055   36.1721   60.3766 C   0  0  0  0  0  0  0  0  0  0  0  0
   30.3089   37.0541   59.5879 O   0  0  0  0  0  0  0  0  0  0  0  0
   31.5473   37.4127   60.2066 C   0  0  0  0  0  0  0  0  0  0  0  0
   31.2635   38.0877   61.5511 C   0  0  0  0  0  0  0  0  0  0  0  0
   31.9173   37.9098   66.0252 N   0  0  0  0  0  0  0  0  0  0  0  0
   30.8787   38.6269   66.7819 C   0  0  0  0  0  0  0  0  0  0  0  0
   30.6857   37.9104   68.1280 C   0  0  0  0  0  0  0  0  0  0  0  0
   31.9551   37.7693   68.7703 O   0  0  0  0  0  0  0  0  0  0  0  0
   32.8896   36.9629   68.0491 C   0  0  0  0  0  0  0  0  0  0  0  0
   33.1933   37.6260   66.7008 C   0  0  0  0  0  0  0  0  0  0  0  0
   28.6146   37.7380   61.5603 H   0  0  0  0  0  0  0  0  0  0  0  0
   28.6373   36.1418   62.3493 H   0  0  0  0  0  0  0  0  0  0  0  0
   28.5719   35.9646   59.8535 H   0  0  0  0  0  0  0  0  0  0  0  0
   30.0445   35.2395   60.5428 H   0  0  0  0  0  0  0  0  0  0  0  0
   32.1462   36.5164   60.3686 H   0  0  0  0  0  0  0  0  0  0  0  0
   32.0911   38.1017   59.5603 H   0  0  0  0  0  0  0  0  0  0  0  0
   32.2053   38.3111   62.0523 H   0  0  0  0  0  0  0  0  0  0  0  0
   30.7106   39.0121   61.3847 H   0  0  0  0  0  0  0  0  0  0  0  0
   31.1937   39.6563   66.9527 H   0  0  0  0  0  0  0  0  0  0  0  0
   29.9436   38.6166   66.2219 H   0  0  0  0  0  0  0  0  0  0  0  0
   30.2512   36.9249   67.9599 H   0  0  0  0  0  0  0  0  0  0  0  0
   30.0207   38.4982   68.7608 H   0  0  0  0  0  0  0  0  0  0  0  0
   32.4632   35.9740   67.8807 H   0  0  0  0  0  0  0  0  0  0  0  0
   33.8107   36.8691   68.6244 H   0  0  0  0  0  0  0  0  0  0  0  0
   33.7918   36.9527   66.0872 H   0  0  0  0  0  0  0  0  0  0  0  0
   33.7378   38.5563   66.8631 H   0  0  0  0  0  0  0  0  0  0  0  0
  1  2  2  0  0  0  0
  2  3  1  0  0  0  0
  2 10  1  0  0  0  0
  3  4  1  0  0  0  0
  4  9  1  0  0  0  0
  4  5  1  0  0  0  0
  5  6  1  0  0  0  0
  5 16  1  0  0  0  0
  5 17  1  0  0  0  0
  6  7  1  0  0  0  0
  6 18  1  0  0  0  0
  6 19  1  0  0  0  0
  7  8  1  0  0  0  0
  8  9  1  0  0  0  0
  8 20  1  0  0  0  0
  8 21  1  0  0  0  0
  9 22  1  0  0  0  0
  9 23  1  0  0  0  0
 10 15  1  0  0  0  0
 10 11  1  0  0  0  0
 11 12  1  0  0  0  0
 11 24  1  0  0  0  0
 11 25  1  0  0  0  0
 12 13  1  0  0  0  0
 12 26  1  0  0  0  0
 12 27  1  0  0  0  0
 13 14  1  0  0  0  0
 14 15  1  0  0  0  0
 14 28  1  0  0  0  0
 14 29  1  0  0  0  0
 15 30  1  0  0  0  0
 15 31  1  0  0  0  0
M  END
$$$$
