ZINC000000049270      none
 OpenBabel11202420153D

 29 30  0  0  0  0  0  0  0  0999 V2000
   31.1667   36.7697   68.3162 C   0  0  0  0  0  0  0  0  0  0  0  0
   30.5087   37.4226   67.1280 C   0  0  0  0  0  0  0  0  0  0  0  0
   29.5743   38.3859   67.3318 N   0  0  0  0  0  0  0  0  0  0  0  0
   29.3439   38.6399   68.2392 H   0  0  0  0  0  0  0  0  0  0  0  0
   28.9606   38.9956   66.3007 C   0  0  0  0  0  0  0  0  0  0  0  0
   28.1248   39.8579   66.5111 O   0  0  0  0  0  0  0  0  0  0  0  0
   29.2876   38.6343   64.9699 C   0  0  0  0  0  0  0  0  0  0  0  0
   28.6450   39.2728   63.8610 C   0  0  0  0  0  0  0  0  0  0  0  0
   28.1351   39.7795   62.9812 N   0  0  0  0  0  0  0  0  0  0  0  0
   30.2555   37.6371   64.7602 C   0  0  0  0  0  0  0  0  0  0  0  0
   30.6297   37.2261   63.3897 C   0  0  0  0  0  0  0  0  0  0  0  0
   29.9421   36.1889   62.7569 C   0  0  0  0  0  0  0  0  0  0  0  0
   30.2954   35.8104   61.4787 C   0  0  0  0  0  0  0  0  0  0  0  0
   31.3296   36.4573   60.8227 C   0  0  0  0  0  0  0  0  0  0  0  0
   31.7681   35.9755   59.2135 Cl  0  0  0  0  0  0  0  0  0  0  0  0
   32.0191   37.4831   61.4476 C   0  0  0  0  0  0  0  0  0  0  0  0
   31.6716   37.8740   62.7237 C   0  0  0  0  0  0  0  0  0  0  0  0
   30.8579   37.0330   65.8805 C   0  0  0  0  0  0  0  0  0  0  0  0
   31.8952   35.9566   65.6897 C   0  0  0  0  0  0  0  0  0  0  0  0
   30.7660   37.1988   69.2346 H   0  0  0  0  0  0  0  0  0  0  0  0
   30.9675   35.6982   68.2985 H   0  0  0  0  0  0  0  0  0  0  0  0
   32.2426   36.9401   68.2747 H   0  0  0  0  0  0  0  0  0  0  0  0
   29.1352   35.6842   63.2671 H   0  0  0  0  0  0  0  0  0  0  0  0
   29.7642   35.0081   60.9881 H   0  0  0  0  0  0  0  0  0  0  0  0
   32.8276   37.9810   60.9329 H   0  0  0  0  0  0  0  0  0  0  0  0
   32.2068   38.6773   63.2082 H   0  0  0  0  0  0  0  0  0  0  0  0
   32.8842   36.4113   65.6315 H   0  0  0  0  0  0  0  0  0  0  0  0
   31.8617   35.2662   66.5325 H   0  0  0  0  0  0  0  0  0  0  0  0
   31.6901   35.4138   64.7671 H   0  0  0  0  0  0  0  0  0  0  0  0
  1  2  1  0  0  0  0
  1 20  1  0  0  0  0
  1 21  1  0  0  0  0
  1 22  1  0  0  0  0
  2 18  2  0  0  0  0
  2  3  1  0  0  0  0
  3  4  1  0  0  0  0
  3  5  1  0  0  0  0
  5  6  2  0  0  0  0
  5  7  1  0  0  0  0
  7  8  1  0  0  0  0
  7 10  2  0  0  0  0
  8  9  3  0  0  0  0
 10 11  1  0  0  0  0
 10 18  1  0  0  0  0
 11 17  2  0  0  0  0
 11 12  1  0  0  0  0
 12 13  2  0  0  0  0
 12 23  1  0  0  0  0
 13 14  1  0  0  0  0
 13 24  1  0  0  0  0
 14 15  1  0  0  0  0
 14 16  2  0  0  0  0
 16 17  1  0  0  0  0
 16 25  1  0  0  0  0
 17 26  1  0  0  0  0
 18 19  1  0  0  0  0
 19 27  1  0  0  0  0
 19 28  1  0  0  0  0
 19 29  1  0  0  0  0
M  END
$$$$
