ZINC000000038880      none
 OpenBabel11202420153D

 20 20  0  0  0  0  0  0  0  0999 V2000
   33.3642   36.8930   54.3052 C   0  0  0  0  0  0  0  0  0  0  0  0
   33.4797   36.4873   55.7520 C   0  0  0  0  0  0  0  0  0  0  0  0
   33.7382   35.3358   56.0413 O   0  0  0  0  0  0  0  0  0  0  0  0
   33.2883   37.4425   56.7685 C   0  0  0  0  0  0  0  0  0  0  0  0
   33.6383   39.1575   56.6196 S   0  0  0  0  0  0  0  0  0  0  0  0
   33.1214   39.4619   58.2162 C   0  0  0  0  0  0  0  0  0  0  0  0
   33.1212   40.6991   58.8161 N   0  0  0  0  0  0  0  0  0  0  0  0
   32.7026   38.2934   58.8234 C   0  0  0  0  0  0  0  0  0  0  0  0
   32.2136   38.2450   60.1684 C   0  0  0  0  0  0  0  0  0  0  0  0
   31.8258   38.2066   61.2355 N   0  0  0  0  0  0  0  0  0  0  0  0
   32.7973   37.1741   58.0147 C   0  0  0  0  0  0  0  0  0  0  0  0
   32.3970   35.7928   58.4652 C   0  0  0  0  0  0  0  0  0  0  0  0
   34.1021   37.6643   54.0842 H   0  0  0  0  0  0  0  0  0  0  0  0
   33.5432   36.0260   53.6694 H   0  0  0  0  0  0  0  0  0  0  0  0
   32.3638   37.2822   54.1158 H   0  0  0  0  0  0  0  0  0  0  0  0
   33.4309   41.4762   58.3251 H   0  0  0  0  0  0  0  0  0  0  0  0
   32.8114   40.7947   59.7303 H   0  0  0  0  0  0  0  0  0  0  0  0
   33.2557   35.2941   58.9146 H   0  0  0  0  0  0  0  0  0  0  0  0
   31.5954   35.8684   59.1999 H   0  0  0  0  0  0  0  0  0  0  0  0
   32.0503   35.2170   57.6072 H   0  0  0  0  0  0  0  0  0  0  0  0
  1  2  1  0  0  0  0
  1 13  1  0  0  0  0
  1 14  1  0  0  0  0
  1 15  1  0  0  0  0
  2  3  2  0  0  0  0
  2  4  1  0  0  0  0
  4 11  2  0  0  0  0
  4  5  1  0  0  0  0
  5  6  1  0  0  0  0
  6  7  1  0  0  0  0
  6  8  2  0  0  0  0
  7 16  1  0  0  0  0
  7 17  1  0  0  0  0
  8  9  1  0  0  0  0
  8 11  1  0  0  0  0
  9 10  3  0  0  0  0
 11 12  1  0  0  0  0
 12 18  1  0  0  0  0
 12 19  1  0  0  0  0
 12 20  1  0  0  0  0
M  END
$$$$
