ZINC000000034273      none
 OpenBabel11202420153D

 44 46  0  0  1  0  0  0  0  0999 V2000
   32.6490   38.0671   68.5203 C   0  0  0  0  0  0  0  0  0  0  0  0
   32.5958   36.7551   67.9565 O   0  0  0  0  0  0  0  0  0  0  0  0
   32.2553   36.6607   66.6432 C   0  0  0  0  0  0  0  0  0  0  0  0
   33.2377   36.6967   65.6669 C   0  0  0  0  0  0  0  0  0  0  0  0
   32.8903   36.5946   64.3327 C   0  0  0  0  0  0  0  0  0  0  0  0
   31.5626   36.4677   63.9687 C   0  0  0  0  0  0  0  0  0  0  0  0
   31.1890   36.3629   62.5125 C   0  0  2  0  0  0  0  0  0  0  0  0
   31.5226   37.2574   61.9865 H   0  0  0  0  0  0  0  0  0  0  0  0
   29.7702   36.2410   62.3924 O   0  0  0  0  0  0  0  0  0  0  0  0
   31.8502   35.1500   61.9102 C   0  0  0  0  0  0  0  0  0  0  0  0
   32.6272   34.3143   62.5431 N   0  0  0  0  0  0  0  0  0  0  0  0
   33.0329   33.3580   61.6947 C   0  0  0  0  0  0  0  0  0  0  0  0
   32.4816   33.6074   60.4915 C   0  0  0  0  0  0  0  0  0  0  0  0
   31.7360   34.7474   60.6262 N   0  0  0  0  0  0  0  0  0  0  0  0
   30.9550   35.4045   59.5754 C   0  0  0  0  0  0  0  0  0  0  0  0
   31.8174   36.4176   58.8675 C   0  0  0  0  0  0  0  0  0  0  0  0
   31.8677   37.7216   59.3235 C   0  0  0  0  0  0  0  0  0  0  0  0
   32.6583   38.6510   58.6739 C   0  0  0  0  0  0  0  0  0  0  0  0
   33.3993   38.2761   57.5687 C   0  0  0  0  0  0  0  0  0  0  0  0
   33.3453   36.9733   57.1098 C   0  0  0  0  0  0  0  0  0  0  0  0
   32.5577   36.0430   57.7618 C   0  0  0  0  0  0  0  0  0  0  0  0
   30.5775   36.4311   64.9378 C   0  0  0  0  0  0  0  0  0  0  0  0
   30.9193   36.5272   66.2772 C   0  0  0  0  0  0  0  0  0  0  0  0
   29.9514   36.4919   67.2318 O   0  0  0  0  0  0  0  0  0  0  0  0
   29.5988   35.2080   67.7508 C   0  0  0  0  0  0  0  0  0  0  0  0
   31.6696   38.5382   68.4372 H   0  0  0  0  0  0  0  0  0  0  0  0
   32.9319   37.9999   69.5708 H   0  0  0  0  0  0  0  0  0  0  0  0
   33.3861   38.6638   67.9830 H   0  0  0  0  0  0  0  0  0  0  0  0
   34.2752   36.7999   65.9483 H   0  0  0  0  0  0  0  0  0  0  0  0
   33.6575   36.6180   63.5728 H   0  0  0  0  0  0  0  0  0  0  0  0
   29.4030   35.4652   62.8377 H   0  0  0  0  0  0  0  0  0  0  0  0
   33.6832   32.5301   61.9354 H   0  0  0  0  0  0  0  0  0  0  0  0
   32.6060   33.0220   59.5926 H   0  0  0  0  0  0  0  0  0  0  0  0
   30.0962   35.9066   60.0210 H   0  0  0  0  0  0  0  0  0  0  0  0
   30.6088   34.6587   58.8598 H   0  0  0  0  0  0  0  0  0  0  0  0
   31.2890   38.0143   60.1872 H   0  0  0  0  0  0  0  0  0  0  0  0
   32.6974   39.6698   59.0299 H   0  0  0  0  0  0  0  0  0  0  0  0
   34.0170   39.0022   57.0612 H   0  0  0  0  0  0  0  0  0  0  0  0
   33.9207   36.6815   56.2438 H   0  0  0  0  0  0  0  0  0  0  0  0
   32.5180   35.0242   57.4053 H   0  0  0  0  0  0  0  0  0  0  0  0
   29.5414   36.3270   64.6511 H   0  0  0  0  0  0  0  0  0  0  0  0
   29.2936   34.5564   66.9320 H   0  0  0  0  0  0  0  0  0  0  0  0
   30.4589   34.7732   68.2599 H   0  0  0  0  0  0  0  0  0  0  0  0
   28.7749   35.3151   68.4563 H   0  0  0  0  0  0  0  0  0  0  0  0
  1  2  1  0  0  0  0
  1 26  1  0  0  0  0
  1 27  1  0  0  0  0
  1 28  1  0  0  0  0
  2  3  1  0  0  0  0
  3 23  2  0  0  0  0
  3  4  1  0  0  0  0
  4  5  2  0  0  0  0
  4 29  1  0  0  0  0
  5  6  1  0  0  0  0
  5 30  1  0  0  0  0
  6  7  1  0  0  0  0
  6 22  2  0  0  0  0
  7  8  1  6  0  0  0
  7  9  1  0  0  0  0
  7 10  1  0  0  0  0
  9 31  1  0  0  0  0
 10 14  1  0  0  0  0
 10 11  2  0  0  0  0
 11 12  1  0  0  0  0
 12 13  2  0  0  0  0
 12 32  1  0  0  0  0
 13 14  1  0  0  0  0
 13 33  1  0  0  0  0
 14 15  1  0  0  0  0
 15 16  1  0  0  0  0
 15 34  1  0  0  0  0
 15 35  1  0  0  0  0
 16 21  2  0  0  0  0
 16 17  1  0  0  0  0
 17 18  2  0  0  0  0
 17 36  1  0  0  0  0
 18 19  1  0  0  0  0
 18 37  1  0  0  0  0
 19 20  2  0  0  0  0
 19 38  1  0  0  0  0
 20 21  1  0  0  0  0
 20 39  1  0  0  0  0
 21 40  1  0  0  0  0
 22 23  1  0  0  0  0
 22 41  1  0  0  0  0
 23 24  1  0  0  0  0
 24 25  1  0  0  0  0
 25 42  1  0  0  0  0
 25 43  1  0  0  0  0
 25 44  1  0  0  0  0
M  END
$$$$
