ZINC000000037157      none
 OpenBabel11202420153D

 26 27  0  0  0  0  0  0  0  0999 V2000
   32.7432   37.9064   58.3781 C   0  0  0  0  0  0  0  0  0  0  0  0
   33.3579   37.8709   57.0026 C   0  0  0  0  0  0  0  0  0  0  0  0
   33.6898   38.9416   56.2487 C   0  0  0  0  0  0  0  0  0  0  0  0
   34.2336   38.4715   55.0452 C   0  0  0  0  0  0  0  0  0  0  0  0
   34.7309   39.3124   53.9332 N   0  0  0  0  0  0  0  0  0  0  0  0
   34.6867   40.5264   54.0207 O   0  0  0  0  0  0  0  0  0  0  0  0
   35.1844   38.7903   52.9305 O   0  0  0  0  0  0  0  0  0  0  0  0
   34.2212   37.1650   55.0691 N   0  0  0  0  0  0  0  0  0  0  0  0
   33.6744   36.7532   56.2914 N   0  0  0  0  0  0  0  0  0  0  0  0
   33.4941   35.4790   56.6921 C   0  0  0  0  0  0  0  0  0  0  0  0
   33.0077   35.2477   57.7810 O   0  0  0  0  0  0  0  0  0  0  0  0
   33.8874   34.3655   55.8085 C   0  0  0  0  0  0  0  0  0  0  0  0
   34.8480   33.4411   56.2282 C   0  0  0  0  0  0  0  0  0  0  0  0
   35.2062   32.3994   55.3999 C   0  0  0  0  0  0  0  0  0  0  0  0
   34.6267   32.2726   54.1485 C   0  0  0  0  0  0  0  0  0  0  0  0
   33.6799   33.1847   53.7215 C   0  0  0  0  0  0  0  0  0  0  0  0
   33.3049   34.2321   54.5432 C   0  0  0  0  0  0  0  0  0  0  0  0
   32.3791   35.1231   54.1258 F   0  0  0  0  0  0  0  0  0  0  0  0
   33.5332   37.9139   59.1290 H   0  0  0  0  0  0  0  0  0  0  0  0
   32.1163   37.0260   58.5188 H   0  0  0  0  0  0  0  0  0  0  0  0
   32.1355   38.8054   58.4812 H   0  0  0  0  0  0  0  0  0  0  0  0
   33.5613   39.9776   56.5257 H   0  0  0  0  0  0  0  0  0  0  0  0
   35.3052   33.5402   57.2017 H   0  0  0  0  0  0  0  0  0  0  0  0
   35.9450   31.6822   55.7260 H   0  0  0  0  0  0  0  0  0  0  0  0
   34.9159   31.4566   53.5028 H   0  0  0  0  0  0  0  0  0  0  0  0
   33.2324   33.0793   52.7443 H   0  0  0  0  0  0  0  0  0  0  0  0
  1  2  1  0  0  0  0
  1 19  1  0  0  0  0
  1 20  1  0  0  0  0
  1 21  1  0  0  0  0
  2  9  1  0  0  0  0
  2  3  2  0  0  0  0
  3  4  1  0  0  0  0
  3 22  1  0  0  0  0
  4  5  1  0  0  0  0
  4  8  2  0  0  0  0
  5  6  2  0  0  0  0
  5  7  2  0  0  0  0
  8  9  1  0  0  0  0
  9 10  1  0  0  0  0
 10 11  2  0  0  0  0
 10 12  1  0  0  0  0
 12 17  2  0  0  0  0
 12 13  1  0  0  0  0
 13 14  2  0  0  0  0
 13 23  1  0  0  0  0
 14 15  1  0  0  0  0
 14 24  1  0  0  0  0
 15 16  2  0  0  0  0
 15 25  1  0  0  0  0
 16 17  1  0  0  0  0
 16 26  1  0  0  0  0
 17 18  1  0  0  0  0
M  END
$$$$
