ZINC000000003553      none
 OpenBabel11202420153D

 32 35  0  0  0  0  0  0  0  0999 V2000
   34.5875   39.4823   54.8578 C   0  0  0  0  0  0  0  0  0  0  0  0
   33.7229   39.9217   55.8509 C   0  0  0  0  0  0  0  0  0  0  0  0
   33.2289   38.9966   56.7535 C   0  0  0  0  0  0  0  0  0  0  0  0
   33.6145   37.6624   56.6351 C   0  0  0  0  0  0  0  0  0  0  0  0
   33.0945   36.6590   57.5944 C   0  0  0  0  0  0  0  0  0  0  0  0
   32.7590   36.8841   58.8455 N   0  0  0  0  0  0  0  0  0  0  0  0
   32.3162   35.6817   59.4091 N   0  0  0  0  0  0  0  0  0  0  0  0
   32.0078   35.5628   60.3210 H   0  0  0  0  0  0  0  0  0  0  0  0
   32.3898   34.7175   58.4709 C   0  0  0  0  0  0  0  0  0  0  0  0
   32.8695   35.2838   57.3262 C   0  0  0  0  0  0  0  0  0  0  0  0
   33.1061   34.5917   56.0384 C   0  0  0  0  0  0  0  0  0  0  0  0
   32.4110   35.0140   54.8923 C   0  0  0  0  0  0  0  0  0  0  0  0
   32.6227   34.3893   53.7012 C   0  0  0  0  0  0  0  0  0  0  0  0
   33.5390   33.3167   53.6595 C   0  0  0  0  0  0  0  0  0  0  0  0
   33.7831   32.6647   52.5206 N   0  0  0  0  0  0  0  0  0  0  0  0
   34.6331   31.6673   52.4745 C   0  0  0  0  0  0  0  0  0  0  0  0
   35.3210   31.2408   53.6088 C   0  0  0  0  0  0  0  0  0  0  0  0
   35.1171   31.8653   54.8057 C   0  0  0  0  0  0  0  0  0  0  0  0
   34.2028   32.9370   54.8516 C   0  0  0  0  0  0  0  0  0  0  0  0
   33.9613   33.5876   55.9918 N   0  0  0  0  0  0  0  0  0  0  0  0
   34.4475   37.2842   55.6740 N   0  0  0  0  0  0  0  0  0  0  0  0
   34.9282   38.1440   54.7988 C   0  0  0  0  0  0  0  0  0  0  0  0
   34.9905   40.1797   54.1384 H   0  0  0  0  0  0  0  0  0  0  0  0
   33.4422   40.9626   55.9177 H   0  0  0  0  0  0  0  0  0  0  0  0
   32.5543   39.3041   57.5388 H   0  0  0  0  0  0  0  0  0  0  0  0
   32.1174   33.6806   58.6019 H   0  0  0  0  0  0  0  0  0  0  0  0
   31.7125   35.8354   54.9555 H   0  0  0  0  0  0  0  0  0  0  0  0
   32.0991   34.7042   52.8107 H   0  0  0  0  0  0  0  0  0  0  0  0
   34.8045   31.1644   51.5343 H   0  0  0  0  0  0  0  0  0  0  0  0
   36.0151   30.4161   53.5413 H   0  0  0  0  0  0  0  0  0  0  0  0
   35.6428   31.5468   55.6937 H   0  0  0  0  0  0  0  0  0  0  0  0
   35.6007   37.7989   54.0274 H   0  0  0  0  0  0  0  0  0  0  0  0
  1 22  2  0  0  0  0
  1  2  1  0  0  0  0
  1 23  1  0  0  0  0
  2  3  2  0  0  0  0
  2 24  1  0  0  0  0
  3  4  1  0  0  0  0
  3 25  1  0  0  0  0
  4  5  1  0  0  0  0
  4 21  2  0  0  0  0
  5 10  1  0  0  0  0
  5  6  2  0  0  0  0
  6  7  1  0  0  0  0
  7  8  1  0  0  0  0
  7  9  1  0  0  0  0
  9 10  2  0  0  0  0
  9 26  1  0  0  0  0
 10 11  1  0  0  0  0
 11 20  2  0  0  0  0
 11 12  1  0  0  0  0
 12 13  2  0  0  0  0
 12 27  1  0  0  0  0
 13 14  1  0  0  0  0
 13 28  1  0  0  0  0
 14 19  2  0  0  0  0
 14 15  1  0  0  0  0
 15 16  2  0  0  0  0
 16 17  1  0  0  0  0
 16 29  1  0  0  0  0
 17 18  2  0  0  0  0
 17 30  1  0  0  0  0
 18 19  1  0  0  0  0
 18 31  1  0  0  0  0
 19 20  1  0  0  0  0
 21 22  1  0  0  0  0
 22 32  1  0  0  0  0
M  END
$$$$
