ZINC000000002237      none
 OpenBabel11202420153D

 36 35  0  0  0  0  0  0  0  0999 V2000
   32.1272   38.7991   65.7779 C   0  0  0  0  0  0  0  0  0  0  0  0
   31.3197   38.0892   64.6895 C   0  0  0  0  0  0  0  0  0  0  0  0
   32.1602   36.9640   64.0827 C   0  0  0  0  0  0  0  0  0  0  0  0
   31.3525   36.2541   62.9943 C   0  0  0  0  0  0  0  0  0  0  0  0
   32.1930   35.1289   62.3875 C   0  0  0  0  0  0  0  0  0  0  0  0
   31.3852   34.4190   61.2990 C   0  0  0  0  0  0  0  0  0  0  0  0
   32.2258   33.2938   60.6923 C   0  0  0  0  0  0  0  0  0  0  0  0
   30.0789   35.6666   63.6056 C   0  0  0  0  0  0  0  0  0  0  0  0
   30.4534   34.6638   64.6986 C   0  0  0  0  0  0  0  0  0  0  0  0
   29.1799   34.0763   65.3099 C   0  0  0  0  0  0  0  0  0  0  0  0
   30.9835   37.2421   61.9177 C   0  0  0  0  0  0  0  0  0  0  0  0
   31.9501   37.8886   61.2364 N   0  0  0  0  0  0  0  0  0  0  0  0
   29.8168   37.4553   61.6644 O   0  0  0  0  0  0  0  0  0  0  0  0
   32.3942   38.0846   66.5565 H   0  0  0  0  0  0  0  0  0  0  0  0
   33.0345   39.2178   65.3423 H   0  0  0  0  0  0  0  0  0  0  0  0
   31.5285   39.6008   66.2102 H   0  0  0  0  0  0  0  0  0  0  0  0
   31.0526   38.8037   63.9108 H   0  0  0  0  0  0  0  0  0  0  0  0
   30.4123   37.6706   65.1251 H   0  0  0  0  0  0  0  0  0  0  0  0
   32.4273   36.2495   64.8614 H   0  0  0  0  0  0  0  0  0  0  0  0
   33.0674   37.3827   63.6471 H   0  0  0  0  0  0  0  0  0  0  0  0
   33.1003   35.5475   61.9518 H   0  0  0  0  0  0  0  0  0  0  0  0
   32.4600   34.4143   63.1660 H   0  0  0  0  0  0  0  0  0  0  0  0
   30.4779   34.0005   61.7346 H   0  0  0  0  0  0  0  0  0  0  0  0
   31.1183   35.1336   60.5205 H   0  0  0  0  0  0  0  0  0  0  0  0
   32.4928   32.5792   61.4709 H   0  0  0  0  0  0  0  0  0  0  0  0
   31.6503   32.7881   59.9169 H   0  0  0  0  0  0  0  0  0  0  0  0
   33.1331   33.7124   60.2566 H   0  0  0  0  0  0  0  0  0  0  0  0
   29.4801   36.4683   64.0380 H   0  0  0  0  0  0  0  0  0  0  0  0
   29.5036   35.1609   62.8302 H   0  0  0  0  0  0  0  0  0  0  0  0
   31.0522   33.8620   64.2663 H   0  0  0  0  0  0  0  0  0  0  0  0
   31.0290   35.1695   65.4740 H   0  0  0  0  0  0  0  0  0  0  0  0
   28.6045   33.5707   64.5346 H   0  0  0  0  0  0  0  0  0  0  0  0
   29.4467   33.3617   66.0886 H   0  0  0  0  0  0  0  0  0  0  0  0
   28.5811   34.8780   65.7422 H   0  0  0  0  0  0  0  0  0  0  0  0
   32.8833   37.7180   61.4391 H   0  0  0  0  0  0  0  0  0  0  0  0
   31.7127   38.5243   60.5435 H   0  0  0  0  0  0  0  0  0  0  0  0
  1  2  1  0  0  0  0
  1 14  1  0  0  0  0
  1 15  1  0  0  0  0
  1 16  1  0  0  0  0
  2  3  1  0  0  0  0
  2 17  1  0  0  0  0
  2 18  1  0  0  0  0
  3  4  1  0  0  0  0
  3 19  1  0  0  0  0
  3 20  1  0  0  0  0
  4  5  1  0  0  0  0
  4  8  1  0  0  0  0
  4 11  1  0  0  0  0
  5  6  1  0  0  0  0
  5 21  1  0  0  0  0
  5 22  1  0  0  0  0
  6  7  1  0  0  0  0
  6 23  1  0  0  0  0
  6 24  1  0  0  0  0
  7 25  1  0  0  0  0
  7 26  1  0  0  0  0
  7 27  1  0  0  0  0
  8  9  1  0  0  0  0
  8 28  1  0  0  0  0
  8 29  1  0  0  0  0
  9 10  1  0  0  0  0
  9 30  1  0  0  0  0
  9 31  1  0  0  0  0
 10 32  1  0  0  0  0
 10 33  1  0  0  0  0
 10 34  1  0  0  0  0
 11 12  1  0  0  0  0
 11 13  2  0  0  0  0
 12 35  1  0  0  0  0
 12 36  1  0  0  0  0
M  END
$$$$
