ZINC000000004264      none
 OpenBabel11202420153D

 37 40  0  0  0  0  0  0  0  0999 V2000
   29.4946   36.9258   70.6709 C   0  0  0  0  0  0  0  0  0  0  0  0
   30.3408   37.3858   69.5119 C   0  0  0  0  0  0  0  0  0  0  0  0
   29.9924   36.9532   68.3445 N   0  0  0  0  0  0  0  0  0  0  0  0
   30.4652   37.1334   67.1713 N   0  0  0  0  0  0  0  0  0  0  0  0
   31.4826   37.8252   66.7124 C   0  0  0  0  0  0  0  0  0  0  0  0
   31.6901   37.7657   65.2520 C   0  0  0  0  0  0  0  0  0  0  0  0
   32.5078   36.7752   64.7004 C   0  0  0  0  0  0  0  0  0  0  0  0
   32.6992   36.7226   63.3382 C   0  0  0  0  0  0  0  0  0  0  0  0
   32.0799   37.6544   62.5104 C   0  0  0  0  0  0  0  0  0  0  0  0
   32.2756   37.5984   61.1328 N   0  0  0  0  0  0  0  0  0  0  0  0
   31.2659   38.6425   63.0564 C   0  0  0  0  0  0  0  0  0  0  0  0
   31.0700   38.7004   64.4179 C   0  0  0  0  0  0  0  0  0  0  0  0
   32.4501   38.6498   67.4633 C   0  0  0  0  0  0  0  0  0  0  0  0
   33.4137   39.2405   66.6487 C   0  0  0  0  0  0  0  0  0  0  0  0
   34.3871   40.0418   67.2189 C   0  0  0  0  0  0  0  0  0  0  0  0
   34.4028   40.2566   68.5977 C   0  0  0  0  0  0  0  0  0  0  0  0
   33.4336   39.6749   69.4081 C   0  0  0  0  0  0  0  0  0  0  0  0
   32.4715   38.8762   68.8448 C   0  0  0  0  0  0  0  0  0  0  0  0
   31.5011   38.3014   69.8527 C   0  0  0  0  0  0  0  0  0  0  0  0
   35.4521   41.0746   68.8987 O   0  0  0  0  0  0  0  0  0  0  0  0
   36.3191   41.0274   67.7501 C   0  0  0  0  0  0  0  0  0  0  0  0
   35.4278   40.7267   66.6601 O   0  0  0  0  0  0  0  0  0  0  0  0
   28.6985   36.2776   70.3047 H   0  0  0  0  0  0  0  0  0  0  0  0
   30.1151   36.3752   71.3779 H   0  0  0  0  0  0  0  0  0  0  0  0
   29.0581   37.7919   71.1684 H   0  0  0  0  0  0  0  0  0  0  0  0
   32.9883   36.0516   65.3422 H   0  0  0  0  0  0  0  0  0  0  0  0
   33.3269   35.9547   62.9109 H   0  0  0  0  0  0  0  0  0  0  0  0
   32.8430   36.9105   60.7511 H   0  0  0  0  0  0  0  0  0  0  0  0
   31.8446   38.2474   60.5550 H   0  0  0  0  0  0  0  0  0  0  0  0
   30.7871   39.3643   62.4114 H   0  0  0  0  0  0  0  0  0  0  0  0
   30.4382   39.4674   64.8409 H   0  0  0  0  0  0  0  0  0  0  0  0
   33.4008   39.0749   65.5816 H   0  0  0  0  0  0  0  0  0  0  0  0
   33.4453   39.8419   70.4750 H   0  0  0  0  0  0  0  0  0  0  0  0
   31.0743   39.1511   70.3855 H   0  0  0  0  0  0  0  0  0  0  0  0
   32.1045   37.7699   70.5886 H   0  0  0  0  0  0  0  0  0  0  0  0
   37.0636   40.2395   67.8644 H   0  0  0  0  0  0  0  0  0  0  0  0
   36.8039   41.9910   67.5937 H   0  0  0  0  0  0  0  0  0  0  0  0
  1  2  1  0  0  0  0
  1 23  1  0  0  0  0
  1 24  1  0  0  0  0
  1 25  1  0  0  0  0
  2 19  1  0  0  0  0
  2  3  2  0  0  0  0
  3  4  1  0  0  0  0
  4  5  2  0  0  0  0
  5  6  1  0  0  0  0
  5 13  1  0  0  0  0
  6 12  2  0  0  0  0
  6  7  1  0  0  0  0
  7  8  2  0  0  0  0
  7 26  1  0  0  0  0
  8  9  1  0  0  0  0
  8 27  1  0  0  0  0
  9 10  1  0  0  0  0
  9 11  2  0  0  0  0
 10 28  1  0  0  0  0
 10 29  1  0  0  0  0
 11 12  1  0  0  0  0
 11 30  1  0  0  0  0
 12 31  1  0  0  0  0
 13 18  2  0  0  0  0
 13 14  1  0  0  0  0
 14 15  2  0  0  0  0
 14 32  1  0  0  0  0
 15 22  1  0  0  0  0
 15 16  1  0  0  0  0
 16 17  2  0  0  0  0
 16 20  1  0  0  0  0
 17 18  1  0  0  0  0
 17 33  1  0  0  0  0
 18 19  1  0  0  0  0
 19 34  1  0  0  0  0
 19 35  1  0  0  0  0
 20 21  1  0  0  0  0
 21 22  1  0  0  0  0
 21 36  1  0  0  0  0
 21 37  1  0  0  0  0
M  END
$$$$
