ZINC000000040986      none
 OpenBabel11202420153D

 30 32  0  0  0  0  0  0  0  0999 V2000
   32.9588   36.4997   63.8228 C   0  0  0  0  0  0  0  0  0  0  0  0
   32.2283   37.6341   63.2420 N   0  0  0  0  0  0  0  0  0  0  0  0
   31.5241   38.3404   64.2327 C   0  0  0  0  0  0  0  0  0  0  0  0
   31.8930   38.7253   65.5137 C   0  0  0  0  0  0  0  0  0  0  0  0
   31.0035   39.4202   66.3116 C   0  0  0  0  0  0  0  0  0  0  0  0
   29.7477   39.7444   65.8329 C   0  0  0  0  0  0  0  0  0  0  0  0
   29.3709   39.3650   64.5583 C   0  0  0  0  0  0  0  0  0  0  0  0
   30.2547   38.6623   63.7520 C   0  0  0  0  0  0  0  0  0  0  0  0
   30.1174   38.1695   62.4425 N   0  0  0  0  0  0  0  0  0  0  0  0
   28.7976   37.5551   62.2466 C   0  0  0  0  0  0  0  0  0  0  0  0
   31.1974   37.1683   62.2863 C   0  0  0  0  0  0  0  0  0  0  0  0
   31.7306   37.1758   60.8768 C   0  0  0  0  0  0  0  0  0  0  0  0
   31.8238   36.1069   60.0842 C   0  0  0  0  0  0  0  0  0  0  0  0
   32.3434   36.3575   58.8259 C   0  0  0  0  0  0  0  0  0  0  0  0
   32.6806   37.6280   58.5998 C   0  0  0  0  0  0  0  0  0  0  0  0
   32.3324   38.5938   60.0280 S   0  0  0  0  0  0  0  0  0  0  0  0
   32.2538   35.8215   64.3036 H   0  0  0  0  0  0  0  0  0  0  0  0
   33.4929   35.9695   63.0343 H   0  0  0  0  0  0  0  0  0  0  0  0
   33.6716   36.8663   64.5614 H   0  0  0  0  0  0  0  0  0  0  0  0
   32.8748   38.4775   65.8895 H   0  0  0  0  0  0  0  0  0  0  0  0
   31.2921   39.7145   67.3098 H   0  0  0  0  0  0  0  0  0  0  0  0
   29.0577   40.2912   66.4583 H   0  0  0  0  0  0  0  0  0  0  0  0
   28.3871   39.6156   64.1897 H   0  0  0  0  0  0  0  0  0  0  0  0
   28.0207   38.2983   62.4255 H   0  0  0  0  0  0  0  0  0  0  0  0
   28.7174   37.1842   61.2249 H   0  0  0  0  0  0  0  0  0  0  0  0
   28.6754   36.7266   62.9445 H   0  0  0  0  0  0  0  0  0  0  0  0
   30.8427   36.1738   62.5571 H   0  0  0  0  0  0  0  0  0  0  0  0
   31.5147   35.1213   60.3994 H   0  0  0  0  0  0  0  0  0  0  0  0
   32.4698   35.5822   58.0847 H   0  0  0  0  0  0  0  0  0  0  0  0
   33.1032   38.0059   57.6805 H   0  0  0  0  0  0  0  0  0  0  0  0
  1  2  1  0  0  0  0
  1 17  1  0  0  0  0
  1 18  1  0  0  0  0
  1 19  1  0  0  0  0
  2 11  1  0  0  0  0
  2  3  1  0  0  0  0
  3  8  2  0  0  0  0
  3  4  1  0  0  0  0
  4  5  2  0  0  0  0
  4 20  1  0  0  0  0
  5  6  1  0  0  0  0
  5 21  1  0  0  0  0
  6  7  2  0  0  0  0
  6 22  1  0  0  0  0
  7  8  1  0  0  0  0
  7 23  1  0  0  0  0
  8  9  1  0  0  0  0
  9 10  1  0  0  0  0
  9 11  1  0  0  0  0
 10 24  1  0  0  0  0
 10 25  1  0  0  0  0
 10 26  1  0  0  0  0
 11 12  1  0  0  0  0
 11 27  1  0  0  0  0
 12 16  1  0  0  0  0
 12 13  2  0  0  0  0
 13 14  1  0  0  0  0
 13 28  1  0  0  0  0
 14 15  2  0  0  0  0
 14 29  1  0  0  0  0
 15 16  1  0  0  0  0
 15 30  1  0  0  0  0
M  END
$$$$
