ZINC000000033972      none
 OpenBabel11202420153D

 39 42  0  0  1  0  0  0  0  0999 V2000
   28.7144   34.3482   67.9001 C   0  0  0  0  0  0  0  0  0  0  0  0
   29.2019   34.6737   66.5117 C   0  0  0  0  0  0  0  0  0  0  0  0
   28.3109   35.1267   65.5562 C   0  0  0  0  0  0  0  0  0  0  0  0
   28.7545   35.4259   64.2830 C   0  0  0  0  0  0  0  0  0  0  0  0
   30.0968   35.2711   63.9627 C   0  0  0  0  0  0  0  0  0  0  0  0
   30.5494   35.5734   62.6736 N   0  0  0  0  0  0  0  0  0  0  0  0
   31.1068   34.5879   61.9987 C   0  0  0  0  0  0  0  0  0  0  0  0
   31.0561   33.4982   62.5287 O   0  0  0  0  0  0  0  0  0  0  0  0
   31.7921   34.6283   60.6756 C   0  0  0  0  0  0  0  0  0  0  0  0
   31.3426   35.8251   59.8366 C   0  0  0  0  0  0  0  0  0  0  0  0
   31.4912   37.3230   60.8611 S   0  0  0  0  0  0  0  0  0  0  0  0
   30.3532   36.9399   62.2214 C   0  0  1  0  0  0  0  0  0  0  0  0
   28.9265   37.1600   61.7781 C   0  0  0  0  0  0  0  0  0  0  0  0
   28.3502   36.5770   60.8843 O   0  0  0  0  0  0  0  0  0  0  0  0
   28.4168   38.1263   62.5628 N   0  0  0  0  0  0  0  0  0  0  0  0
   29.3442   38.5916   63.4965 C   0  0  0  0  0  0  0  0  0  0  0  0
   29.2313   39.5702   64.4820 C   0  0  0  0  0  0  0  0  0  0  0  0
   30.3058   39.8601   65.2969 C   0  0  0  0  0  0  0  0  0  0  0  0
   31.5021   39.1833   65.1433 C   0  0  0  0  0  0  0  0  0  0  0  0
   31.6217   38.2098   64.1672 C   0  0  0  0  0  0  0  0  0  0  0  0
   30.5513   37.9174   63.3522 C   0  0  0  0  0  0  0  0  0  0  0  0
   30.9880   34.8102   64.9228 C   0  0  0  0  0  0  0  0  0  0  0  0
   30.5392   34.5186   66.1960 C   0  0  0  0  0  0  0  0  0  0  0  0
   28.4162   33.3007   67.9441 H   0  0  0  0  0  0  0  0  0  0  0  0
   29.5149   34.5285   68.6178 H   0  0  0  0  0  0  0  0  0  0  0  0
   27.8599   34.9798   68.1425 H   0  0  0  0  0  0  0  0  0  0  0  0
   27.2670   35.2467   65.8059 H   0  0  0  0  0  0  0  0  0  0  0  0
   28.0582   35.7802   63.5373 H   0  0  0  0  0  0  0  0  0  0  0  0
   31.5682   33.7103   60.1322 H   0  0  0  0  0  0  0  0  0  0  0  0
   32.8684   34.6916   60.8355 H   0  0  0  0  0  0  0  0  0  0  0  0
   31.9786   35.9169   58.9560 H   0  0  0  0  0  0  0  0  0  0  0  0
   30.3054   35.6906   59.5296 H   0  0  0  0  0  0  0  0  0  0  0  0
   27.5095   38.4609   62.4885 H   0  0  0  0  0  0  0  0  0  0  0  0
   28.3003   40.1027   64.6083 H   0  0  0  0  0  0  0  0  0  0  0  0
   30.2124   40.6195   66.0592 H   0  0  0  0  0  0  0  0  0  0  0  0
   32.3407   39.4140   65.7835 H   0  0  0  0  0  0  0  0  0  0  0  0
   32.5543   37.6792   64.0451 H   0  0  0  0  0  0  0  0  0  0  0  0
   32.0318   34.6841   64.6754 H   0  0  0  0  0  0  0  0  0  0  0  0
   31.2327   34.1647   66.9445 H   0  0  0  0  0  0  0  0  0  0  0  0
  1  2  1  0  0  0  0
  1 24  1  0  0  0  0
  1 25  1  0  0  0  0
  1 26  1  0  0  0  0
  2 23  2  0  0  0  0
  2  3  1  0  0  0  0
  3  4  2  0  0  0  0
  3 27  1  0  0  0  0
  4  5  1  0  0  0  0
  4 28  1  0  0  0  0
  5  6  1  0  0  0  0
  5 22  2  0  0  0  0
  6 12  1  0  0  0  0
  6  7  1  0  0  0  0
  7  8  2  0  0  0  0
  7  9  1  0  0  0  0
  9 10  1  0  0  0  0
  9 29  1  0  0  0  0
  9 30  1  0  0  0  0
 10 11  1  0  0  0  0
 10 31  1  0  0  0  0
 10 32  1  0  0  0  0
 12 11  1  6  0  0  0
 12 21  1  0  0  0  0
 12 13  1  0  0  0  0
 13 14  2  0  0  0  0
 13 15  1  0  0  0  0
 15 16  1  0  0  0  0
 15 33  1  0  0  0  0
 16 21  2  0  0  0  0
 16 17  1  0  0  0  0
 17 18  2  0  0  0  0
 17 34  1  0  0  0  0
 18 19  1  0  0  0  0
 18 35  1  0  0  0  0
 19 20  2  0  0  0  0
 19 36  1  0  0  0  0
 20 21  1  0  0  0  0
 20 37  1  0  0  0  0
 22 23  1  0  0  0  0
 22 38  1  0  0  0  0
 23 39  1  0  0  0  0
M  END
$$$$
