ZINC000000044288      none
 OpenBabel11202420153D

 41 43  0  0  0  0  0  0  0  0999 V2000
   33.3787   35.2031   55.2888 C   0  0  0  0  0  0  0  0  0  0  0  0
   32.9757   35.4387   56.6394 O   0  0  0  0  0  0  0  0  0  0  0  0
   33.1019   36.7087   57.1086 C   0  0  0  0  0  0  0  0  0  0  0  0
   33.6085   37.7044   56.2860 C   0  0  0  0  0  0  0  0  0  0  0  0
   33.7391   38.9962   56.7601 C   0  0  0  0  0  0  0  0  0  0  0  0
   33.3642   39.3001   58.0586 C   0  0  0  0  0  0  0  0  0  0  0  0
   33.4939   40.5718   58.5246 O   0  0  0  0  0  0  0  0  0  0  0  0
   34.7337   40.9106   59.1492 C   0  0  0  0  0  0  0  0  0  0  0  0
   32.8549   38.3029   58.8867 C   0  0  0  0  0  0  0  0  0  0  0  0
   32.4754   38.6077   60.2006 N   0  0  0  0  0  0  0  0  0  0  0  0
   31.2025   38.4104   60.5972 C   0  0  0  0  0  0  0  0  0  0  0  0
   30.3855   37.9692   59.8168 O   0  0  0  0  0  0  0  0  0  0  0  0
   30.7943   38.7380   62.0106 C   0  0  0  0  0  0  0  0  0  0  0  0
   30.2949   37.5276   62.6676 N   0  0  0  0  0  0  0  0  0  0  0  0
   31.0616   36.6655   63.3594 C   0  0  0  0  0  0  0  0  0  0  0  0
   32.2589   36.7659   63.5362 O   0  0  0  0  0  0  0  0  0  0  0  0
   30.2027   35.5756   63.8688 C   0  0  0  0  0  0  0  0  0  0  0  0
   30.4303   34.4377   64.6261 C   0  0  0  0  0  0  0  0  0  0  0  0
   29.3739   33.5956   64.9358 C   0  0  0  0  0  0  0  0  0  0  0  0
   28.0943   33.8885   64.5028 C   0  0  0  0  0  0  0  0  0  0  0  0
   27.8514   35.0234   63.7448 C   0  0  0  0  0  0  0  0  0  0  0  0
   28.8987   35.8719   63.4233 C   0  0  0  0  0  0  0  0  0  0  0  0
   29.0092   37.1317   62.6582 C   0  0  0  0  0  0  0  0  0  0  0  0
   28.0929   37.7120   62.1119 O   0  0  0  0  0  0  0  0  0  0  0  0
   32.7293   37.0064   58.4102 C   0  0  0  0  0  0  0  0  0  0  0  0
   32.7836   35.8234   54.6186 H   0  0  0  0  0  0  0  0  0  0  0  0
   34.4333   35.4537   55.1754 H   0  0  0  0  0  0  0  0  0  0  0  0
   33.2263   34.1522   55.0423 H   0  0  0  0  0  0  0  0  0  0  0  0
   33.9018   37.4695   55.2735 H   0  0  0  0  0  0  0  0  0  0  0  0
   34.1341   39.7693   56.1177 H   0  0  0  0  0  0  0  0  0  0  0  0
   34.7046   41.9507   59.4742 H   0  0  0  0  0  0  0  0  0  0  0  0
   34.8943   40.2646   60.0122 H   0  0  0  0  0  0  0  0  0  0  0  0
   35.5481   40.7750   58.4374 H   0  0  0  0  0  0  0  0  0  0  0  0
   33.1288   38.9605   60.8247 H   0  0  0  0  0  0  0  0  0  0  0  0
   30.0091   39.4938   61.9959 H   0  0  0  0  0  0  0  0  0  0  0  0
   31.6560   39.1196   62.5583 H   0  0  0  0  0  0  0  0  0  0  0  0
   31.4276   34.2057   64.9699 H   0  0  0  0  0  0  0  0  0  0  0  0
   29.5511   32.7060   65.5222 H   0  0  0  0  0  0  0  0  0  0  0  0
   27.2785   33.2267   64.7538 H   0  0  0  0  0  0  0  0  0  0  0  0
   26.8503   35.2452   63.4059 H   0  0  0  0  0  0  0  0  0  0  0  0
   32.3385   36.2302   59.0515 H   0  0  0  0  0  0  0  0  0  0  0  0
  1  2  1  0  0  0  0
  1 26  1  0  0  0  0
  1 27  1  0  0  0  0
  1 28  1  0  0  0  0
  2  3  1  0  0  0  0
  3 25  2  0  0  0  0
  3  4  1  0  0  0  0
  4  5  2  0  0  0  0
  4 29  1  0  0  0  0
  5  6  1  0  0  0  0
  5 30  1  0  0  0  0
  6  7  1  0  0  0  0
  6  9  2  0  0  0  0
  7  8  1  0  0  0  0
  8 31  1  0  0  0  0
  8 32  1  0  0  0  0
  8 33  1  0  0  0  0
  9 10  1  0  0  0  0
  9 25  1  0  0  0  0
 10 11  1  0  0  0  0
 10 34  1  0  0  0  0
 11 12  2  0  0  0  0
 11 13  1  0  0  0  0
 13 14  1  0  0  0  0
 13 35  1  0  0  0  0
 13 36  1  0  0  0  0
 14 23  1  0  0  0  0
 14 15  1  0  0  0  0
 15 16  2  0  0  0  0
 15 17  1  0  0  0  0
 17 22  2  0  0  0  0
 17 18  1  0  0  0  0
 18 19  2  0  0  0  0
 18 37  1  0  0  0  0
 19 20  1  0  0  0  0
 19 38  1  0  0  0  0
 20 21  2  0  0  0  0
 20 39  1  0  0  0  0
 21 22  1  0  0  0  0
 21 40  1  0  0  0  0
 22 23  1  0  0  0  0
 23 24  2  0  0  0  0
 25 41  1  0  0  0  0
M  END
$$$$
