ZINC000000053312      none
 OpenBabel11202420153D

 33 35  0  0  0  0  0  0  0  0999 V2000
   33.6773   37.2125   55.7744 C   0  0  0  0  0  0  0  0  0  0  0  0
   33.1247   36.2132   56.6335 O   0  0  0  0  0  0  0  0  0  0  0  0
   32.8155   36.5921   57.9019 C   0  0  0  0  0  0  0  0  0  0  0  0
   33.0449   37.8981   58.3110 C   0  0  0  0  0  0  0  0  0  0  0  0
   32.7261   38.2849   59.5973 C   0  0  0  0  0  0  0  0  0  0  0  0
   32.1806   37.3654   60.4835 C   0  0  0  0  0  0  0  0  0  0  0  0
   31.8563   37.7576   61.7896 N   0  0  0  0  0  0  0  0  0  0  0  0
   30.9533   38.7550   61.9893 C   0  0  0  0  0  0  0  0  0  0  0  0
   30.5978   39.1703   63.1672 N   0  0  0  0  0  0  0  0  0  0  0  0
   31.1210   38.6345   64.2980 C   0  0  0  0  0  0  0  0  0  0  0  0
   30.7431   39.0851   65.5647 C   0  0  0  0  0  0  0  0  0  0  0  0
   31.3001   38.5127   66.6860 C   0  0  0  0  0  0  0  0  0  0  0  0
   32.2349   37.4915   66.5742 C   0  0  0  0  0  0  0  0  0  0  0  0
   32.6237   37.0299   65.3359 C   0  0  0  0  0  0  0  0  0  0  0  0
   32.0716   37.5954   64.1879 C   0  0  0  0  0  0  0  0  0  0  0  0
   32.4484   37.1440   62.8407 C   0  0  0  0  0  0  0  0  0  0  0  0
   33.2619   36.2533   62.6767 O   0  0  0  0  0  0  0  0  0  0  0  0
   31.9562   36.0574   60.0753 C   0  0  0  0  0  0  0  0  0  0  0  0
   31.3753   35.0766   61.0195 N   0  0  0  0  0  0  0  0  0  0  0  0
   31.0940   35.4169   62.1547 O   0  0  0  0  0  0  0  0  0  0  0  0
   31.1784   33.9293   60.6612 O   0  0  0  0  0  0  0  0  0  0  0  0
   32.2755   35.6717   58.7884 C   0  0  0  0  0  0  0  0  0  0  0  0
   34.6070   37.5866   56.2033 H   0  0  0  0  0  0  0  0  0  0  0  0
   33.8778   36.7788   54.7947 H   0  0  0  0  0  0  0  0  0  0  0  0
   32.9688   38.0340   55.6701 H   0  0  0  0  0  0  0  0  0  0  0  0
   33.4688   38.6133   57.6216 H   0  0  0  0  0  0  0  0  0  0  0  0
   32.9006   39.3025   59.9142 H   0  0  0  0  0  0  0  0  0  0  0  0
   30.5064   39.2226   61.1244 H   0  0  0  0  0  0  0  0  0  0  0  0
   30.0178   39.8789   65.6642 H   0  0  0  0  0  0  0  0  0  0  0  0
   31.0068   38.8624   67.6648 H   0  0  0  0  0  0  0  0  0  0  0  0
   32.6607   37.0555   67.4659 H   0  0  0  0  0  0  0  0  0  0  0  0
   33.3506   36.2352   65.2552 H   0  0  0  0  0  0  0  0  0  0  0  0
   32.1009   34.6544   58.4706 H   0  0  0  0  0  0  0  0  0  0  0  0
  1  2  1  0  0  0  0
  1 23  1  0  0  0  0
  1 24  1  0  0  0  0
  1 25  1  0  0  0  0
  2  3  1  0  0  0  0
  3 22  2  0  0  0  0
  3  4  1  0  0  0  0
  4  5  2  0  0  0  0
  4 26  1  0  0  0  0
  5  6  1  0  0  0  0
  5 27  1  0  0  0  0
  6  7  1  0  0  0  0
  6 18  2  0  0  0  0
  7 16  1  0  0  0  0
  7  8  1  0  0  0  0
  8  9  2  0  0  0  0
  8 28  1  0  0  0  0
  9 10  1  0  0  0  0
 10 15  2  0  0  0  0
 10 11  1  0  0  0  0
 11 12  2  0  0  0  0
 11 29  1  0  0  0  0
 12 13  1  0  0  0  0
 12 30  1  0  0  0  0
 13 14  2  0  0  0  0
 13 31  1  0  0  0  0
 14 15  1  0  0  0  0
 14 32  1  0  0  0  0
 15 16  1  0  0  0  0
 16 17  2  0  0  0  0
 18 19  1  0  0  0  0
 18 22  1  0  0  0  0
 19 20  2  0  0  0  0
 19 21  2  0  0  0  0
 22 33  1  0  0  0  0
M  END
$$$$
