ZINC000000040378      none
 OpenBabel11202420153D

 29 30  0  0  1  0  0  0  0  0999 V2000
   28.5810   39.6154   65.8793 C   0  0  0  0  0  0  0  0  0  0  0  0
   29.1754   38.6445   64.9781 O   0  0  0  0  0  0  0  0  0  0  0  0
   30.3605   38.9633   64.4345 C   0  0  0  0  0  0  0  0  0  0  0  0
   30.8840   40.0188   64.7030 O   0  0  0  0  0  0  0  0  0  0  0  0
   31.0384   38.0051   63.4894 C   0  0  1  0  0  0  0  0  0  0  0  0
   31.3008   36.7007   64.1977 C   0  0  0  0  0  0  0  0  0  0  0  0
   32.6219   36.4796   64.8884 C   0  0  0  0  0  0  0  0  0  0  0  0
   30.4054   35.7710   64.2183 N   0  0  0  0  0  0  0  0  0  0  0  0
   29.2231   35.9135   63.5984 C   0  0  0  0  0  0  0  0  0  0  0  0
   27.9450   34.8376   63.9723 S   0  0  0  0  0  0  0  0  0  0  0  0
   29.0226   36.8841   62.6895 N   0  0  0  0  0  0  0  0  0  0  0  0
   30.1326   37.7519   62.2813 C   0  0  2  0  0  0  0  0  0  0  0  0
   29.7395   38.7003   61.9152 H   0  0  0  0  0  0  0  0  0  0  0  0
   30.9240   37.0776   61.1904 C   0  0  0  0  0  0  0  0  0  0  0  0
   31.0578   35.7589   61.0404 C   0  0  0  0  0  0  0  0  0  0  0  0
   31.8338   35.3704   59.9620 C   0  0  0  0  0  0  0  0  0  0  0  0
   32.3301   36.3735   59.2362 C   0  0  0  0  0  0  0  0  0  0  0  0
   31.8059   37.9087   59.9157 S   0  0  0  0  0  0  0  0  0  0  0  0
   28.4164   40.5522   65.3469 H   0  0  0  0  0  0  0  0  0  0  0  0
   27.6282   39.2343   66.2468 H   0  0  0  0  0  0  0  0  0  0  0  0
   29.2519   39.7885   66.7207 H   0  0  0  0  0  0  0  0  0  0  0  0
   31.9828   38.4329   63.1529 H   0  0  0  0  0  0  0  0  0  0  0  0
   32.5527   36.8192   65.9219 H   0  0  0  0  0  0  0  0  0  0  0  0
   32.8680   35.4180   64.8704 H   0  0  0  0  0  0  0  0  0  0  0  0
   33.4002   37.0419   64.3725 H   0  0  0  0  0  0  0  0  0  0  0  0
   28.1420   37.0107   62.3029 H   0  0  0  0  0  0  0  0  0  0  0  0
   30.5962   35.0482   61.7099 H   0  0  0  0  0  0  0  0  0  0  0  0
   32.0228   34.3336   59.7259 H   0  0  0  0  0  0  0  0  0  0  0  0
   32.9541   36.2603   58.3621 H   0  0  0  0  0  0  0  0  0  0  0  0
  1  2  1  0  0  0  0
  1 19  1  0  0  0  0
  1 20  1  0  0  0  0
  1 21  1  0  0  0  0
  2  3  1  0  0  0  0
  3  4  2  0  0  0  0
  3  5  1  0  0  0  0
  5 12  1  0  0  0  0
  5  6  1  0  0  0  0
  5 22  1  6  0  0  0
  6  7  1  0  0  0  0
  6  8  2  0  0  0  0
  7 23  1  0  0  0  0
  7 24  1  0  0  0  0
  7 25  1  0  0  0  0
  8  9  1  0  0  0  0
  9 10  2  0  0  0  0
  9 11  1  0  0  0  0
 11 12  1  0  0  0  0
 11 26  1  0  0  0  0
 12 13  1  6  0  0  0
 12 14  1  0  0  0  0
 14 18  1  0  0  0  0
 14 15  2  0  0  0  0
 15 16  1  0  0  0  0
 15 27  1  0  0  0  0
 16 17  2  0  0  0  0
 16 28  1  0  0  0  0
 17 18  1  0  0  0  0
 17 29  1  0  0  0  0
M  END
$$$$
