ZINC000000029841      none
 OpenBabel11202420163D

 29 29  0  0  0  0  0  0  0  0999 V2000
   29.2997   33.3321   64.5438 C   0  0  0  0  0  0  0  0  0  0  0  0
   30.0740   34.2768   63.6224 C   0  0  0  0  0  0  0  0  0  0  0  0
   30.7808   35.3426   64.4623 C   0  0  0  0  0  0  0  0  0  0  0  0
   31.0685   33.5134   62.8646 N   0  0  0  0  0  0  0  0  0  0  0  0
   32.0564   34.2853   61.7826 S   0  0  0  0  0  0  0  0  0  0  0  0
   32.8058   33.2375   61.1829 O   0  0  0  0  0  0  0  0  0  0  0  0
   32.6951   35.2961   62.5503 O   0  0  0  0  0  0  0  0  0  0  0  0
   30.9186   35.0240   60.5782 C   0  0  0  0  0  0  0  0  0  0  0  0
   31.6199   36.1355   59.8408 C   0  0  0  0  0  0  0  0  0  0  0  0
   31.5731   37.4273   60.3309 C   0  0  0  0  0  0  0  0  0  0  0  0
   32.2171   38.4467   59.6549 C   0  0  0  0  0  0  0  0  0  0  0  0
   32.9083   38.1743   58.4892 C   0  0  0  0  0  0  0  0  0  0  0  0
   32.9506   36.8836   57.9963 C   0  0  0  0  0  0  0  0  0  0  0  0
   32.3103   35.8634   58.6746 C   0  0  0  0  0  0  0  0  0  0  0  0
   28.5597   33.9001   65.1076 H   0  0  0  0  0  0  0  0  0  0  0  0
   28.7961   32.5728   63.9454 H   0  0  0  0  0  0  0  0  0  0  0  0
   29.9916   32.8504   65.2347 H   0  0  0  0  0  0  0  0  0  0  0  0
   29.3821   34.7586   62.9315 H   0  0  0  0  0  0  0  0  0  0  0  0
   31.3325   36.0157   63.8060 H   0  0  0  0  0  0  0  0  0  0  0  0
   30.0409   35.9107   65.0262 H   0  0  0  0  0  0  0  0  0  0  0  0
   31.4727   34.8608   65.1532 H   0  0  0  0  0  0  0  0  0  0  0  0
   31.1485   32.5557   62.9965 H   0  0  0  0  0  0  0  0  0  0  0  0
   30.0489   35.4254   61.0986 H   0  0  0  0  0  0  0  0  0  0  0  0
   30.5973   34.2626   59.8674 H   0  0  0  0  0  0  0  0  0  0  0  0
   31.0336   37.6399   61.2421 H   0  0  0  0  0  0  0  0  0  0  0  0
   32.1805   39.4559   60.0378 H   0  0  0  0  0  0  0  0  0  0  0  0
   33.4114   38.9709   57.9611 H   0  0  0  0  0  0  0  0  0  0  0  0
   33.4870   36.6715   57.0832 H   0  0  0  0  0  0  0  0  0  0  0  0
   32.3472   34.8541   58.2919 H   0  0  0  0  0  0  0  0  0  0  0  0
  1  2  1  0  0  0  0
  1 15  1  0  0  0  0
  1 16  1  0  0  0  0
  1 17  1  0  0  0  0
  2  3  1  0  0  0  0
  2  4  1  0  0  0  0
  2 18  1  0  0  0  0
  3 19  1  0  0  0  0
  3 20  1  0  0  0  0
  3 21  1  0  0  0  0
  4  5  1  0  0  0  0
  4 22  1  0  0  0  0
  5  6  2  0  0  0  0
  5  7  2  0  0  0  0
  5  8  1  0  0  0  0
  8  9  1  0  0  0  0
  8 23  1  0  0  0  0
  8 24  1  0  0  0  0
  9 14  2  0  0  0  0
  9 10  1  0  0  0  0
 10 11  2  0  0  0  0
 10 25  1  0  0  0  0
 11 12  1  0  0  0  0
 11 26  1  0  0  0  0
 12 13  2  0  0  0  0
 12 27  1  0  0  0  0
 13 14  1  0  0  0  0
 13 28  1  0  0  0  0
 14 29  1  0  0  0  0
M  END
$$$$
