ZINC000000039900      none
 OpenBabel11202420153D

 27 28  0  0  0  0  0  0  0  0999 V2000
   33.0410   40.3885   58.7720 N   0  0  0  0  0  0  0  0  0  0  0  0
   32.6945   39.0768   59.0441 C   0  0  0  0  0  0  0  0  0  0  0  0
   32.7240   38.1847   58.0650 N   0  0  0  0  0  0  0  0  0  0  0  0
   32.3984   36.9177   58.2877 C   0  0  0  0  0  0  0  0  0  0  0  0
   32.4325   36.0165   57.2818 F   0  0  0  0  0  0  0  0  0  0  0  0
   32.0235   36.5300   59.5635 C   0  0  0  0  0  0  0  0  0  0  0  0
   32.0027   37.4930   60.5718 C   0  0  0  0  0  0  0  0  0  0  0  0
   31.6341   37.1506   61.8629 N   0  0  0  0  0  0  0  0  0  0  0  0
   32.5885   36.2006   62.4484 C   0  0  0  0  0  0  0  0  0  0  0  0
   32.2332   35.9583   63.9170 C   0  0  0  0  0  0  0  0  0  0  0  0
   30.8096   35.4016   64.0076 C   0  0  0  0  0  0  0  0  0  0  0  0
   29.8416   36.3876   63.3480 C   0  0  0  0  0  0  0  0  0  0  0  0
   30.2661   36.6175   61.8958 C   0  0  0  0  0  0  0  0  0  0  0  0
   32.3467   38.7437   60.2778 N   0  0  0  0  0  0  0  0  0  0  0  0
   33.3014   40.6451   57.8736 H   0  0  0  0  0  0  0  0  0  0  0  0
   33.0197   41.0525   59.4790 H   0  0  0  0  0  0  0  0  0  0  0  0
   31.7532   35.5054   59.7726 H   0  0  0  0  0  0  0  0  0  0  0  0
   32.5429   35.2577   61.9033 H   0  0  0  0  0  0  0  0  0  0  0  0
   33.5962   36.6103   62.3813 H   0  0  0  0  0  0  0  0  0  0  0  0
   32.2919   36.8983   64.4656 H   0  0  0  0  0  0  0  0  0  0  0  0
   32.9324   35.2410   64.3471 H   0  0  0  0  0  0  0  0  0  0  0  0
   30.5366   35.2682   65.0544 H   0  0  0  0  0  0  0  0  0  0  0  0
   30.7593   34.4421   63.4929 H   0  0  0  0  0  0  0  0  0  0  0  0
   29.8627   37.3344   63.8876 H   0  0  0  0  0  0  0  0  0  0  0  0
   28.8317   35.9778   63.3713 H   0  0  0  0  0  0  0  0  0  0  0  0
   29.5873   37.3300   61.4274 H   0  0  0  0  0  0  0  0  0  0  0  0
   30.2316   35.6726   61.3535 H   0  0  0  0  0  0  0  0  0  0  0  0
  1  2  1  0  0  0  0
  1 15  1  0  0  0  0
  1 16  1  0  0  0  0
  2 14  2  0  0  0  0
  2  3  1  0  0  0  0
  3  4  2  0  0  0  0
  4  5  1  0  0  0  0
  4  6  1  0  0  0  0
  6  7  2  0  0  0  0
  6 17  1  0  0  0  0
  7  8  1  0  0  0  0
  7 14  1  0  0  0  0
  8 13  1  0  0  0  0
  8  9  1  0  0  0  0
  9 10  1  0  0  0  0
  9 18  1  0  0  0  0
  9 19  1  0  0  0  0
 10 11  1  0  0  0  0
 10 20  1  0  0  0  0
 10 21  1  0  0  0  0
 11 12  1  0  0  0  0
 11 22  1  0  0  0  0
 11 23  1  0  0  0  0
 12 13  1  0  0  0  0
 12 24  1  0  0  0  0
 12 25  1  0  0  0  0
 13 26  1  0  0  0  0
 13 27  1  0  0  0  0
M  END
$$$$
