ZINC000000001015      none
 OpenBabel11202420153D

 30 32  0  0  0  0  0  0  0  0999 V2000
   34.3547   33.6798   58.3504 O   0  0  0  0  0  0  0  0  0  0  0  0
   33.4335   33.8379   57.5744 C   0  0  0  0  0  0  0  0  0  0  0  0
   32.2829   34.3950   57.9990 O   0  0  0  0  0  0  0  0  0  0  0  0
   32.3570   35.6536   58.5050 C   0  0  0  0  0  0  0  0  0  0  0  0
   31.9705   35.9004   59.7919 C   0  0  0  0  0  0  0  0  0  0  0  0
   32.0430   37.1825   60.3288 C   0  0  0  0  0  0  0  0  0  0  0  0
   32.4931   38.2296   59.5830 C   0  0  0  0  0  0  0  0  0  0  0  0
   32.8949   38.0166   58.2546 C   0  0  0  0  0  0  0  0  0  0  0  0
   33.3653   39.0738   57.4526 C   0  0  0  0  0  0  0  0  0  0  0  0
   33.7384   38.7925   56.1694 C   0  0  0  0  0  0  0  0  0  0  0  0
   33.6473   37.4876   55.6892 C   0  0  0  0  0  0  0  0  0  0  0  0
   33.2084   36.5060   56.4390 N   0  0  0  0  0  0  0  0  0  0  0  0
   32.8280   36.7138   57.7027 C   0  0  0  0  0  0  0  0  0  0  0  0
   33.5772   33.4246   56.1635 C   0  0  0  0  0  0  0  0  0  0  0  0
   32.5186   33.5995   55.2701 C   0  0  0  0  0  0  0  0  0  0  0  0
   32.6615   33.2162   53.9527 C   0  0  0  0  0  0  0  0  0  0  0  0
   33.8469   32.6499   53.5184 C   0  0  0  0  0  0  0  0  0  0  0  0
   34.8981   32.4684   54.3996 C   0  0  0  0  0  0  0  0  0  0  0  0
   34.7707   32.8519   55.7185 C   0  0  0  0  0  0  0  0  0  0  0  0
   31.6063   35.0878   60.4029 H   0  0  0  0  0  0  0  0  0  0  0  0
   31.7348   37.3500   61.3503 H   0  0  0  0  0  0  0  0  0  0  0  0
   32.5412   39.2197   60.0119 H   0  0  0  0  0  0  0  0  0  0  0  0
   33.4289   40.0795   57.8413 H   0  0  0  0  0  0  0  0  0  0  0  0
   34.1033   39.5805   55.5274 H   0  0  0  0  0  0  0  0  0  0  0  0
   33.9454   37.2796   54.6722 H   0  0  0  0  0  0  0  0  0  0  0  0
   31.5912   34.0376   55.6087 H   0  0  0  0  0  0  0  0  0  0  0  0
   31.8450   33.3549   53.2596 H   0  0  0  0  0  0  0  0  0  0  0  0
   33.9520   32.3478   52.4868 H   0  0  0  0  0  0  0  0  0  0  0  0
   35.8204   32.0252   54.0541 H   0  0  0  0  0  0  0  0  0  0  0  0
   35.5917   32.7095   56.4054 H   0  0  0  0  0  0  0  0  0  0  0  0
  1  2  2  0  0  0  0
  2  3  1  0  0  0  0
  2 14  1  0  0  0  0
  3  4  1  0  0  0  0
  4 13  2  0  0  0  0
  4  5  1  0  0  0  0
  5  6  2  0  0  0  0
  5 20  1  0  0  0  0
  6  7  1  0  0  0  0
  6 21  1  0  0  0  0
  7  8  2  0  0  0  0
  7 22  1  0  0  0  0
  8 13  1  0  0  0  0
  8  9  1  0  0  0  0
  9 10  2  0  0  0  0
  9 23  1  0  0  0  0
 10 11  1  0  0  0  0
 10 24  1  0  0  0  0
 11 12  2  0  0  0  0
 11 25  1  0  0  0  0
 12 13  1  0  0  0  0
 14 19  2  0  0  0  0
 14 15  1  0  0  0  0
 15 16  2  0  0  0  0
 15 26  1  0  0  0  0
 16 17  1  0  0  0  0
 16 27  1  0  0  0  0
 17 18  2  0  0  0  0
 17 28  1  0  0  0  0
 18 19  1  0  0  0  0
 18 29  1  0  0  0  0
 19 30  1  0  0  0  0
M  END
$$$$
