ZINC000000038190      none
 OpenBabel11202420153D

 26 28  0  0  0  0  0  0  0  0999 V2000
   31.0865   35.7923   61.8291 N   0  0  0  0  0  0  0  0  0  0  0  0
   31.6720   36.4900   60.7674 C   0  0  0  0  0  0  0  0  0  0  0  0
   32.0246   37.8284   60.9272 C   0  0  0  0  0  0  0  0  0  0  0  0
   32.6020   38.5272   59.8883 C   0  0  0  0  0  0  0  0  0  0  0  0
   32.8360   37.8980   58.6752 C   0  0  0  0  0  0  0  0  0  0  0  0
   33.3765   38.3011   57.5025 O   0  0  0  0  0  0  0  0  0  0  0  0
   33.3520   37.2592   56.6503 C   0  0  0  0  0  0  0  0  0  0  0  0
   33.8503   37.2904   55.2596 C   0  0  0  0  0  0  0  0  0  0  0  0
   33.7744   36.1468   54.4624 C   0  0  0  0  0  0  0  0  0  0  0  0
   34.2404   36.1816   53.1652 C   0  0  0  0  0  0  0  0  0  0  0  0
   34.7836   37.3491   52.6523 C   0  0  0  0  0  0  0  0  0  0  0  0
   35.2388   37.3778   51.3806 F   0  0  0  0  0  0  0  0  0  0  0  0
   34.8666   38.4859   53.4412 C   0  0  0  0  0  0  0  0  0  0  0  0
   34.3983   38.4638   54.7380 C   0  0  0  0  0  0  0  0  0  0  0  0
   32.8271   36.2125   57.2361 N   0  0  0  0  0  0  0  0  0  0  0  0
   32.4839   36.5492   58.5062 C   0  0  0  0  0  0  0  0  0  0  0  0
   31.8990   35.8484   59.5636 C   0  0  0  0  0  0  0  0  0  0  0  0
   30.8405   34.8603   61.7200 H   0  0  0  0  0  0  0  0  0  0  0  0
   30.9264   36.2404   62.6743 H   0  0  0  0  0  0  0  0  0  0  0  0
   31.8442   38.3218   61.8709 H   0  0  0  0  0  0  0  0  0  0  0  0
   32.8726   39.5644   60.0197 H   0  0  0  0  0  0  0  0  0  0  0  0
   33.3517   35.2364   54.8611 H   0  0  0  0  0  0  0  0  0  0  0  0
   34.1818   35.2975   52.5475 H   0  0  0  0  0  0  0  0  0  0  0  0
   35.2948   39.3917   53.0382 H   0  0  0  0  0  0  0  0  0  0  0  0
   34.4591   39.3513   55.3502 H   0  0  0  0  0  0  0  0  0  0  0  0
   31.6250   34.8109   59.4414 H   0  0  0  0  0  0  0  0  0  0  0  0
  1  2  1  0  0  0  0
  1 18  1  0  0  0  0
  1 19  1  0  0  0  0
  2 17  2  0  0  0  0
  2  3  1  0  0  0  0
  3  4  2  0  0  0  0
  3 20  1  0  0  0  0
  4  5  1  0  0  0  0
  4 21  1  0  0  0  0
  5 16  2  0  0  0  0
  5  6  1  0  0  0  0
  6  7  1  0  0  0  0
  7  8  1  0  0  0  0
  7 15  2  0  0  0  0
  8 14  2  0  0  0  0
  8  9  1  0  0  0  0
  9 10  2  0  0  0  0
  9 22  1  0  0  0  0
 10 11  1  0  0  0  0
 10 23  1  0  0  0  0
 11 12  1  0  0  0  0
 11 13  2  0  0  0  0
 13 14  1  0  0  0  0
 13 24  1  0  0  0  0
 14 25  1  0  0  0  0
 15 16  1  0  0  0  0
 16 17  1  0  0  0  0
 17 26  1  0  0  0  0
M  END
$$$$
