ZINC000000004099      none
 OpenBabel11202420153D

 33 35  0  0  0  0  0  0  0  0999 V2000
   30.0179   37.2268   61.7866 C   0  0  0  0  0  0  0  0  0  0  0  0
   31.4956   37.0262   62.0041 C   0  0  0  0  0  0  0  0  0  0  0  0
   31.9764   37.2145   63.0966 O   0  0  0  0  0  0  0  0  0  0  0  0
   32.2768   36.6332   60.9856 O   0  0  0  0  0  0  0  0  0  0  0  0
   31.9803   35.4406   60.4051 C   0  0  0  0  0  0  0  0  0  0  0  0
   31.4030   34.4398   61.1527 C   0  0  0  0  0  0  0  0  0  0  0  0
   31.0944   33.2166   60.5759 C   0  0  0  0  0  0  0  0  0  0  0  0
   31.3646   32.9939   59.2446 C   0  0  0  0  0  0  0  0  0  0  0  0
   31.9482   33.9942   58.4683 C   0  0  0  0  0  0  0  0  0  0  0  0
   32.4106   34.0227   56.7683 S   0  0  0  0  0  0  0  0  0  0  0  0
   32.9746   35.6795   56.9366 C   0  0  0  0  0  0  0  0  0  0  0  0
   33.5616   36.4871   55.8455 C   0  0  0  0  0  0  0  0  0  0  0  0
   33.9727   37.7984   56.0876 C   0  0  0  0  0  0  0  0  0  0  0  0
   34.5245   38.5447   55.0667 C   0  0  0  0  0  0  0  0  0  0  0  0
   34.6608   37.9992   53.8026 C   0  0  0  0  0  0  0  0  0  0  0  0
   35.2590   38.8220   52.6908 C   0  0  0  0  0  0  0  0  0  0  0  0
   34.2499   36.7016   53.5547 C   0  0  0  0  0  0  0  0  0  0  0  0
   33.7015   35.9429   54.5683 C   0  0  0  0  0  0  0  0  0  0  0  0
   32.8114   36.0873   58.1493 N   0  0  0  0  0  0  0  0  0  0  0  0
   32.2615   35.2359   59.0316 C   0  0  0  0  0  0  0  0  0  0  0  0
   29.5522   37.5389   62.7213 H   0  0  0  0  0  0  0  0  0  0  0  0
   29.8632   37.9952   61.0292 H   0  0  0  0  0  0  0  0  0  0  0  0
   29.5697   36.2913   61.4520 H   0  0  0  0  0  0  0  0  0  0  0  0
   31.1888   34.6079   62.1978 H   0  0  0  0  0  0  0  0  0  0  0  0
   30.6419   32.4379   61.1721 H   0  0  0  0  0  0  0  0  0  0  0  0
   31.1231   32.0401   58.7993 H   0  0  0  0  0  0  0  0  0  0  0  0
   33.8630   38.2268   57.0729 H   0  0  0  0  0  0  0  0  0  0  0  0
   34.8468   39.5584   55.2538 H   0  0  0  0  0  0  0  0  0  0  0  0
   34.4674   39.3643   52.1738 H   0  0  0  0  0  0  0  0  0  0  0  0
   35.9732   39.5319   53.1081 H   0  0  0  0  0  0  0  0  0  0  0  0
   35.7692   38.1649   51.9865 H   0  0  0  0  0  0  0  0  0  0  0  0
   34.3584   36.2816   52.5656 H   0  0  0  0  0  0  0  0  0  0  0  0
   33.3807   34.9302   54.3734 H   0  0  0  0  0  0  0  0  0  0  0  0
  1  2  1  0  0  0  0
  1 21  1  0  0  0  0
  1 22  1  0  0  0  0
  1 23  1  0  0  0  0
  2  3  2  0  0  0  0
  2  4  1  0  0  0  0
  4  5  1  0  0  0  0
  5 20  2  0  0  0  0
  5  6  1  0  0  0  0
  6  7  2  0  0  0  0
  6 24  1  0  0  0  0
  7  8  1  0  0  0  0
  7 25  1  0  0  0  0
  8  9  2  0  0  0  0
  8 26  1  0  0  0  0
  9 20  1  0  0  0  0
  9 10  1  0  0  0  0
 10 11  1  0  0  0  0
 11 12  1  0  0  0  0
 11 19  2  0  0  0  0
 12 18  2  0  0  0  0
 12 13  1  0  0  0  0
 13 14  2  0  0  0  0
 13 27  1  0  0  0  0
 14 15  1  0  0  0  0
 14 28  1  0  0  0  0
 15 16  1  0  0  0  0
 15 17  2  0  0  0  0
 16 29  1  0  0  0  0
 16 30  1  0  0  0  0
 16 31  1  0  0  0  0
 17 18  1  0  0  0  0
 17 32  1  0  0  0  0
 18 33  1  0  0  0  0
 19 20  1  0  0  0  0
M  END
$$$$
