ZINC000000045797      none
 OpenBabel11202420153D

 29 32  0  0  0  0  0  0  0  0999 V2000
   31.3608   38.8140   58.4942 O   0  0  0  0  0  0  0  0  0  0  0  0
   31.7663   37.6673   58.4877 C   0  0  0  0  0  0  0  0  0  0  0  0
   32.5508   37.1544   57.3503 C   0  0  0  0  0  0  0  0  0  0  0  0
   32.8521   37.9586   56.2531 C   0  0  0  0  0  0  0  0  0  0  0  0
   33.5886   37.4388   55.2097 C   0  0  0  0  0  0  0  0  0  0  0  0
   34.0285   36.1248   55.2488 C   0  0  0  0  0  0  0  0  0  0  0  0
   33.7366   35.3177   56.3301 C   0  0  0  0  0  0  0  0  0  0  0  0
   32.9928   35.8211   57.3868 C   0  0  0  0  0  0  0  0  0  0  0  0
   32.6846   35.0391   58.4908 N   0  0  0  0  0  0  0  0  0  0  0  0
   32.9678   33.7081   58.8326 N   0  0  0  0  0  0  0  0  0  0  0  0
   32.4272   33.5000   59.9852 N   0  0  0  0  0  0  0  0  0  0  0  0
   31.8354   34.5616   60.4001 N   0  0  0  0  0  0  0  0  0  0  0  0
   31.9626   35.5356   59.5215 C   0  0  0  0  0  0  0  0  0  0  0  0
   31.5063   36.8396   59.5218 N   0  0  0  0  0  0  0  0  0  0  0  0
   30.7626   37.3096   60.6109 C   0  0  0  0  0  0  0  0  0  0  0  0
   29.5597   36.7021   60.9463 C   0  0  0  0  0  0  0  0  0  0  0  0
   28.8304   37.1657   62.0235 C   0  0  0  0  0  0  0  0  0  0  0  0
   29.2921   38.2397   62.7623 C   0  0  0  0  0  0  0  0  0  0  0  0
   30.4871   38.8500   62.4279 C   0  0  0  0  0  0  0  0  0  0  0  0
   31.2234   38.3882   61.3545 C   0  0  0  0  0  0  0  0  0  0  0  0
   32.5106   38.9826   56.2199 H   0  0  0  0  0  0  0  0  0  0  0  0
   33.8243   38.0588   54.3573 H   0  0  0  0  0  0  0  0  0  0  0  0
   34.6053   35.7289   54.4261 H   0  0  0  0  0  0  0  0  0  0  0  0
   34.0838   34.2953   56.3515 H   0  0  0  0  0  0  0  0  0  0  0  0
   29.1967   35.8658   60.3673 H   0  0  0  0  0  0  0  0  0  0  0  0
   27.8964   36.6915   62.2869 H   0  0  0  0  0  0  0  0  0  0  0  0
   28.7181   38.6028   63.6019 H   0  0  0  0  0  0  0  0  0  0  0  0
   30.8449   39.6886   63.0067 H   0  0  0  0  0  0  0  0  0  0  0  0
   32.1566   38.8652   61.0940 H   0  0  0  0  0  0  0  0  0  0  0  0
  1  2  2  0  0  0  0
  2 14  1  0  0  0  0
  2  3  1  0  0  0  0
  3  8  2  0  0  0  0
  3  4  1  0  0  0  0
  4  5  2  0  0  0  0
  4 21  1  0  0  0  0
  5  6  1  0  0  0  0
  5 22  1  0  0  0  0
  6  7  2  0  0  0  0
  6 23  1  0  0  0  0
  7  8  1  0  0  0  0
  7 24  1  0  0  0  0
  8  9  1  0  0  0  0
  9 13  1  0  0  0  0
  9 10  1  0  0  0  0
 10 11  2  0  0  0  0
 11 12  1  0  0  0  0
 12 13  2  0  0  0  0
 13 14  1  0  0  0  0
 14 15  1  0  0  0  0
 15 20  2  0  0  0  0
 15 16  1  0  0  0  0
 16 17  2  0  0  0  0
 16 25  1  0  0  0  0
 17 18  1  0  0  0  0
 17 26  1  0  0  0  0
 18 19  2  0  0  0  0
 18 27  1  0  0  0  0
 19 20  1  0  0  0  0
 19 28  1  0  0  0  0
 20 29  1  0  0  0  0
M  END
$$$$
