ZINC000000035793      none
 OpenBabel11202420153D

 21 22  0  0  0  0  0  0  0  0999 V2000
   28.8098   36.9981   62.5555 O   0  0  0  0  0  0  0  0  0  0  0  0
   29.0409   36.7403   61.3910 C   0  0  0  0  0  0  0  0  0  0  0  0
   30.2811   37.0982   60.8220 C   0  0  0  0  0  0  0  0  0  0  0  0
   31.3151   37.7465   61.4730 C   0  0  0  0  0  0  0  0  0  0  0  0
   32.3441   37.9002   60.5429 C   0  0  0  0  0  0  0  0  0  0  0  0
   31.9059   37.3433   59.3614 C   0  0  0  0  0  0  0  0  0  0  0  0
   32.6722   37.2819   58.1014 C   0  0  0  0  0  0  0  0  0  0  0  0
   33.1041   38.4585   57.4847 C   0  0  0  0  0  0  0  0  0  0  0  0
   33.8149   38.3937   56.3035 C   0  0  0  0  0  0  0  0  0  0  0  0
   34.3469   39.8550   55.5318 Cl  0  0  0  0  0  0  0  0  0  0  0  0
   34.1052   37.1655   55.7323 C   0  0  0  0  0  0  0  0  0  0  0  0
   33.6857   35.9963   56.3402 C   0  0  0  0  0  0  0  0  0  0  0  0
   32.9733   36.0459   57.5223 C   0  0  0  0  0  0  0  0  0  0  0  0
   32.4467   34.5771   58.2831 Cl  0  0  0  0  0  0  0  0  0  0  0  0
   30.6622   36.8709   59.5465 O   0  0  0  0  0  0  0  0  0  0  0  0
   28.2968   36.2371   60.7913 H   0  0  0  0  0  0  0  0  0  0  0  0
   31.3243   38.0714   62.5030 H   0  0  0  0  0  0  0  0  0  0  0  0
   33.3023   38.3674   60.7163 H   0  0  0  0  0  0  0  0  0  0  0  0
   32.8783   39.4166   57.9286 H   0  0  0  0  0  0  0  0  0  0  0  0
   34.6615   37.1208   54.8077 H   0  0  0  0  0  0  0  0  0  0  0  0
   33.9156   35.0422   55.8894 H   0  0  0  0  0  0  0  0  0  0  0  0
  1  2  2  0  0  0  0
  2  3  1  0  0  0  0
  2 16  1  0  0  0  0
  3 15  1  0  0  0  0
  3  4  2  0  0  0  0
  4  5  1  0  0  0  0
  4 17  1  0  0  0  0
  5  6  2  0  0  0  0
  5 18  1  0  0  0  0
  6  7  1  0  0  0  0
  6 15  1  0  0  0  0
  7 13  2  0  0  0  0
  7  8  1  0  0  0  0
  8  9  2  0  0  0  0
  8 19  1  0  0  0  0
  9 10  1  0  0  0  0
  9 11  1  0  0  0  0
 11 12  2  0  0  0  0
 11 20  1  0  0  0  0
 12 13  1  0  0  0  0
 12 21  1  0  0  0  0
 13 14  1  0  0  0  0
M  END
$$$$
