ZINC000000033394      none
 OpenBabel11202420153D

 38 40  0  0  0  0  0  0  0  0999 V2000
   28.6183   37.0400   61.9092 C   0  0  0  0  0  0  0  0  0  0  0  0
   29.4591   37.0204   63.1596 C   0  0  0  0  0  0  0  0  0  0  0  0
   28.8786   37.2211   64.3112 N   0  0  0  0  0  0  0  0  0  0  0  0
   29.5903   37.2121   65.4523 C   0  0  0  0  0  0  0  0  0  0  0  0
   29.0448   37.3998   66.5282 O   0  0  0  0  0  0  0  0  0  0  0  0
   31.0377   36.9714   65.3774 C   0  0  0  0  0  0  0  0  0  0  0  0
   31.8739   36.9502   66.6018 C   0  0  0  0  0  0  0  0  0  0  0  0
   32.4645   38.1244   67.0660 C   0  0  0  0  0  0  0  0  0  0  0  0
   33.2382   38.0994   68.2086 C   0  0  0  0  0  0  0  0  0  0  0  0
   33.4360   36.9104   68.8873 C   0  0  0  0  0  0  0  0  0  0  0  0
   32.8567   35.7411   68.4282 C   0  0  0  0  0  0  0  0  0  0  0  0
   32.0770   35.7550   67.2896 C   0  0  0  0  0  0  0  0  0  0  0  0
   31.5878   36.7624   64.1446 C   0  0  0  0  0  0  0  0  0  0  0  0
   33.0653   36.5034   63.9999 C   0  0  0  0  0  0  0  0  0  0  0  0
   30.7813   36.7960   63.0483 N   0  0  0  0  0  0  0  0  0  0  0  0
   31.3380   36.5873   61.7796 C   0  0  0  0  0  0  0  0  0  0  0  0
   31.8051   37.6639   61.0391 C   0  0  0  0  0  0  0  0  0  0  0  0
   32.3531   37.4555   59.7881 C   0  0  0  0  0  0  0  0  0  0  0  0
   32.4380   36.1757   59.2706 C   0  0  0  0  0  0  0  0  0  0  0  0
   31.9750   35.0983   60.0020 C   0  0  0  0  0  0  0  0  0  0  0  0
   31.4237   35.2983   61.2577 C   0  0  0  0  0  0  0  0  0  0  0  0
   30.9683   34.2397   61.9785 O   0  0  0  0  0  0  0  0  0  0  0  0
   28.2520   36.0345   61.7018 H   0  0  0  0  0  0  0  0  0  0  0  0
   27.7724   37.7128   62.0507 H   0  0  0  0  0  0  0  0  0  0  0  0
   29.2222   37.3869   61.0706 H   0  0  0  0  0  0  0  0  0  0  0  0
   32.3141   39.0525   66.5346 H   0  0  0  0  0  0  0  0  0  0  0  0
   33.6932   39.0092   68.5713 H   0  0  0  0  0  0  0  0  0  0  0  0
   34.0453   36.8949   69.7788 H   0  0  0  0  0  0  0  0  0  0  0  0
   33.0151   34.8155   68.9618 H   0  0  0  0  0  0  0  0  0  0  0  0
   31.6250   34.8415   66.9323 H   0  0  0  0  0  0  0  0  0  0  0  0
   33.5895   37.4506   63.8726 H   0  0  0  0  0  0  0  0  0  0  0  0
   33.4354   36.0007   64.8935 H   0  0  0  0  0  0  0  0  0  0  0  0
   33.2399   35.8717   63.1290 H   0  0  0  0  0  0  0  0  0  0  0  0
   31.7402   38.6644   61.4405 H   0  0  0  0  0  0  0  0  0  0  0  0
   32.7163   38.2942   59.2127 H   0  0  0  0  0  0  0  0  0  0  0  0
   32.8714   36.0173   58.2941 H   0  0  0  0  0  0  0  0  0  0  0  0
   32.0431   34.1002   59.5950 H   0  0  0  0  0  0  0  0  0  0  0  0
   30.6023   34.4794   62.8408 H   0  0  0  0  0  0  0  0  0  0  0  0
  1  2  1  0  0  0  0
  1 23  1  0  0  0  0
  1 24  1  0  0  0  0
  1 25  1  0  0  0  0
  2 15  1  0  0  0  0
  2  3  2  0  0  0  0
  3  4  1  0  0  0  0
  4  5  2  0  0  0  0
  4  6  1  0  0  0  0
  6  7  1  0  0  0  0
  6 13  2  0  0  0  0
  7 12  2  0  0  0  0
  7  8  1  0  0  0  0
  8  9  2  0  0  0  0
  8 26  1  0  0  0  0
  9 10  1  0  0  0  0
  9 27  1  0  0  0  0
 10 11  2  0  0  0  0
 10 28  1  0  0  0  0
 11 12  1  0  0  0  0
 11 29  1  0  0  0  0
 12 30  1  0  0  0  0
 13 14  1  0  0  0  0
 13 15  1  0  0  0  0
 14 31  1  0  0  0  0
 14 32  1  0  0  0  0
 14 33  1  0  0  0  0
 15 16  1  0  0  0  0
 16 21  2  0  0  0  0
 16 17  1  0  0  0  0
 17 18  2  0  0  0  0
 17 34  1  0  0  0  0
 18 19  1  0  0  0  0
 18 35  1  0  0  0  0
 19 20  2  0  0  0  0
 19 36  1  0  0  0  0
 20 21  1  0  0  0  0
 20 37  1  0  0  0  0
 21 22  1  0  0  0  0
 22 38  1  0  0  0  0
M  END
$$$$
