ZINC000000058149      none
 OpenBabel11202420153D

 22 23  0  0  0  0  0  0  0  0999 V2000
   31.9956   33.8941   59.5237 N   0  0  0  0  0  0  0  0  0  0  0  0
   32.2204   35.2206   59.4428 C   0  0  0  0  0  0  0  0  0  0  0  0
   32.0523   35.9267   60.4193 O   0  0  0  0  0  0  0  0  0  0  0  0
   32.6682   35.8137   58.1758 C   0  0  0  0  0  0  0  0  0  0  0  0
   32.8933   35.1571   57.0016 C   0  0  0  0  0  0  0  0  0  0  0  0
   33.2912   36.0378   56.0530 N   0  0  0  0  0  0  0  0  0  0  0  0
   33.5089   35.8041   55.1371 H   0  0  0  0  0  0  0  0  0  0  0  0
   33.3425   37.3164   56.5740 C   0  0  0  0  0  0  0  0  0  0  0  0
   33.6819   38.5514   56.0303 C   0  0  0  0  0  0  0  0  0  0  0  0
   33.6394   39.6837   56.8124 C   0  0  0  0  0  0  0  0  0  0  0  0
   33.2562   39.6071   58.1499 C   0  0  0  0  0  0  0  0  0  0  0  0
   33.2168   40.7663   58.9323 N   0  0  0  0  0  0  0  0  0  0  0  0
   32.9151   38.3868   58.7061 C   0  0  0  0  0  0  0  0  0  0  0  0
   32.9567   37.2371   57.9213 C   0  0  0  0  0  0  0  0  0  0  0  0
   32.1296   33.3312   58.7452 H   0  0  0  0  0  0  0  0  0  0  0  0
   31.6998   33.5024   60.3603 H   0  0  0  0  0  0  0  0  0  0  0  0
   32.7724   34.0944   56.8511 H   0  0  0  0  0  0  0  0  0  0  0  0
   33.9802   38.6216   54.9947 H   0  0  0  0  0  0  0  0  0  0  0  0
   33.9045   40.6397   56.3854 H   0  0  0  0  0  0  0  0  0  0  0  0
   32.9505   40.7141   59.8636 H   0  0  0  0  0  0  0  0  0  0  0  0
   33.4557   41.6222   58.5435 H   0  0  0  0  0  0  0  0  0  0  0  0
   32.6181   38.3264   59.7427 H   0  0  0  0  0  0  0  0  0  0  0  0
  1  2  1  0  0  0  0
  1 15  1  0  0  0  0
  1 16  1  0  0  0  0
  2  3  2  0  0  0  0
  2  4  1  0  0  0  0
  4 14  1  0  0  0  0
  4  5  2  0  0  0  0
  5  6  1  0  0  0  0
  5 17  1  0  0  0  0
  6  7  1  0  0  0  0
  6  8  1  0  0  0  0
  8 14  2  0  0  0  0
  8  9  1  0  0  0  0
  9 10  2  0  0  0  0
  9 18  1  0  0  0  0
 10 11  1  0  0  0  0
 10 19  1  0  0  0  0
 11 12  1  0  0  0  0
 11 13  2  0  0  0  0
 12 20  1  0  0  0  0
 12 21  1  0  0  0  0
 13 14  1  0  0  0  0
 13 22  1  0  0  0  0
M  END
$$$$
