ZINC000000003833      none
 OpenBabel11202420153D

 31 33  0  0  0  0  0  0  0  0999 V2000
   31.5683   33.1993   58.8806 C   0  0  0  0  0  0  0  0  0  0  0  0
   31.6707   34.5290   60.1044 S   0  0  0  0  0  0  0  0  0  0  0  0
   32.2063   35.8534   59.0731 C   0  0  0  0  0  0  0  0  0  0  0  0
   32.4311   35.7618   57.7853 N   0  0  0  0  0  0  0  0  0  0  0  0
   32.8298   36.9684   57.3047 C   0  0  0  0  0  0  0  0  0  0  0  0
   33.1898   37.4238   56.0337 C   0  0  0  0  0  0  0  0  0  0  0  0
   33.5573   38.7389   55.8572 C   0  0  0  0  0  0  0  0  0  0  0  0
   33.5731   39.6157   56.9318 C   0  0  0  0  0  0  0  0  0  0  0  0
   33.2201   39.1817   58.1930 C   0  0  0  0  0  0  0  0  0  0  0  0
   32.8472   37.8608   58.3892 C   0  0  0  0  0  0  0  0  0  0  0  0
   32.4436   37.1310   59.4955 N   0  0  0  0  0  0  0  0  0  0  0  0
   32.3003   37.6347   60.8638 C   0  0  0  0  0  0  0  0  0  0  0  0
   31.0048   37.1351   61.4499 C   0  0  0  0  0  0  0  0  0  0  0  0
   30.9883   36.6237   62.7339 C   0  0  0  0  0  0  0  0  0  0  0  0
   29.7906   36.1715   63.2656 C   0  0  0  0  0  0  0  0  0  0  0  0
   28.6510   36.2411   62.4783 C   0  0  0  0  0  0  0  0  0  0  0  0
   28.7456   36.7603   61.2014 C   0  0  0  0  0  0  0  0  0  0  0  0
   29.9014   37.1860   60.7298 N   0  0  0  0  0  0  0  0  0  0  0  0
   30.8533   33.4737   58.1049 H   0  0  0  0  0  0  0  0  0  0  0  0
   32.5490   33.0423   58.4316 H   0  0  0  0  0  0  0  0  0  0  0  0
   31.2407   32.2812   59.3682 H   0  0  0  0  0  0  0  0  0  0  0  0
   33.1804   36.7463   55.1927 H   0  0  0  0  0  0  0  0  0  0  0  0
   33.8351   39.0906   54.8745 H   0  0  0  0  0  0  0  0  0  0  0  0
   33.8634   40.6449   56.7803 H   0  0  0  0  0  0  0  0  0  0  0  0
   33.2345   39.8694   59.0257 H   0  0  0  0  0  0  0  0  0  0  0  0
   33.1339   37.2808   61.4703 H   0  0  0  0  0  0  0  0  0  0  0  0
   32.2969   38.7246   60.8512 H   0  0  0  0  0  0  0  0  0  0  0  0
   31.8965   36.5802   63.3170 H   0  0  0  0  0  0  0  0  0  0  0  0
   29.7468   35.7708   64.2676 H   0  0  0  0  0  0  0  0  0  0  0  0
   27.7018   35.8934   62.8585 H   0  0  0  0  0  0  0  0  0  0  0  0
   27.8626   36.8180   60.5819 H   0  0  0  0  0  0  0  0  0  0  0  0
  1  2  1  0  0  0  0
  1 19  1  0  0  0  0
  1 20  1  0  0  0  0
  1 21  1  0  0  0  0
  2  3  1  0  0  0  0
  3 11  1  0  0  0  0
  3  4  2  0  0  0  0
  4  5  1  0  0  0  0
  5 10  2  0  0  0  0
  5  6  1  0  0  0  0
  6  7  2  0  0  0  0
  6 22  1  0  0  0  0
  7  8  1  0  0  0  0
  7 23  1  0  0  0  0
  8  9  2  0  0  0  0
  8 24  1  0  0  0  0
  9 10  1  0  0  0  0
  9 25  1  0  0  0  0
 10 11  1  0  0  0  0
 11 12  1  0  0  0  0
 12 13  1  0  0  0  0
 12 26  1  0  0  0  0
 12 27  1  0  0  0  0
 13 18  2  0  0  0  0
 13 14  1  0  0  0  0
 14 15  2  0  0  0  0
 14 28  1  0  0  0  0
 15 16  1  0  0  0  0
 15 29  1  0  0  0  0
 16 17  2  0  0  0  0
 16 30  1  0  0  0  0
 17 18  1  0  0  0  0
 17 31  1  0  0  0  0
M  END
$$$$
