ZINC000000029683      none
 OpenBabel11202420163D

 26 26  0  0  0  0  0  0  0  0999 V2000
   31.9432   36.3621   67.2676 C   0  0  0  0  0  0  0  0  0  0  0  0
   31.6543   36.6642   65.8771 O   0  0  0  0  0  0  0  0  0  0  0  0
   32.7048   36.8125   65.0548 C   0  0  0  0  0  0  0  0  0  0  0  0
   33.8285   36.6939   65.4827 O   0  0  0  0  0  0  0  0  0  0  0  0
   32.4826   37.1269   63.5978 C   0  0  0  0  0  0  0  0  0  0  0  0
   31.2111   36.5448   63.1609 N   0  0  0  0  0  0  0  0  0  0  0  0
   30.3399   37.2698   61.9536 S   0  0  0  0  0  0  0  0  0  0  0  0
   29.2572   36.3973   61.6605 O   0  0  0  0  0  0  0  0  0  0  0  0
   30.1625   38.6243   62.3447 O   0  0  0  0  0  0  0  0  0  0  0  0
   31.3605   37.2961   60.5175 C   0  0  0  0  0  0  0  0  0  0  0  0
   31.8692   38.4943   60.0531 C   0  0  0  0  0  0  0  0  0  0  0  0
   32.6752   38.5142   58.9289 C   0  0  0  0  0  0  0  0  0  0  0  0
   33.3206   40.0183   58.3500 Cl  0  0  0  0  0  0  0  0  0  0  0  0
   32.9624   37.3359   58.2625 C   0  0  0  0  0  0  0  0  0  0  0  0
   32.4492   36.1387   58.7236 C   0  0  0  0  0  0  0  0  0  0  0  0
   31.6480   36.1181   59.8517 C   0  0  0  0  0  0  0  0  0  0  0  0
   31.0032   34.6140   60.4310 Cl  0  0  0  0  0  0  0  0  0  0  0  0
   32.4973   35.4254   67.3284 H   0  0  0  0  0  0  0  0  0  0  0  0
   32.5405   37.1662   67.6976 H   0  0  0  0  0  0  0  0  0  0  0  0
   31.0086   36.2680   67.8207 H   0  0  0  0  0  0  0  0  0  0  0  0
   33.2966   36.7066   63.0071 H   0  0  0  0  0  0  0  0  0  0  0  0
   32.4538   38.2076   63.4594 H   0  0  0  0  0  0  0  0  0  0  0  0
   30.8795   35.7346   63.5788 H   0  0  0  0  0  0  0  0  0  0  0  0
   31.6412   39.4145   60.5703 H   0  0  0  0  0  0  0  0  0  0  0  0
   33.5874   37.3520   57.3819 H   0  0  0  0  0  0  0  0  0  0  0  0
   32.6730   35.2191   58.2034 H   0  0  0  0  0  0  0  0  0  0  0  0
  1  2  1  0  0  0  0
  1 18  1  0  0  0  0
  1 19  1  0  0  0  0
  1 20  1  0  0  0  0
  2  3  1  0  0  0  0
  3  4  2  0  0  0  0
  3  5  1  0  0  0  0
  5  6  1  0  0  0  0
  5 21  1  0  0  0  0
  5 22  1  0  0  0  0
  6  7  1  0  0  0  0
  6 23  1  0  0  0  0
  7  8  2  0  0  0  0
  7  9  2  0  0  0  0
  7 10  1  0  0  0  0
 10 16  2  0  0  0  0
 10 11  1  0  0  0  0
 11 12  2  0  0  0  0
 11 24  1  0  0  0  0
 12 13  1  0  0  0  0
 12 14  1  0  0  0  0
 14 15  2  0  0  0  0
 14 25  1  0  0  0  0
 15 16  1  0  0  0  0
 15 26  1  0  0  0  0
 16 17  1  0  0  0  0
M  END
$$$$
