ZINC000000052131      none
 OpenBabel11202420153D

 37 39  0  0  0  0  0  0  0  0999 V2000
   32.0060   33.4314   59.7612 Cl  0  0  0  0  0  0  0  0  0  0  0  0
   31.2681   34.0556   61.2032 C   0  0  0  0  0  0  0  0  0  0  0  0
   31.2195   33.2792   62.3474 C   0  0  0  0  0  0  0  0  0  0  0  0
   30.6266   33.7738   63.4939 C   0  0  0  0  0  0  0  0  0  0  0  0
   30.0873   35.0465   63.4999 C   0  0  0  0  0  0  0  0  0  0  0  0
   30.1403   35.8260   62.3579 C   0  0  0  0  0  0  0  0  0  0  0  0
   29.4626   37.4241   62.3654 Cl  0  0  0  0  0  0  0  0  0  0  0  0
   30.7332   35.3313   61.2101 C   0  0  0  0  0  0  0  0  0  0  0  0
   30.7909   36.1796   59.9659 C   0  0  0  0  0  0  0  0  0  0  0  0
   32.0964   36.0939   59.3910 O   0  0  0  0  0  0  0  0  0  0  0  0
   32.5411   37.1797   58.7053 C   0  0  0  0  0  0  0  0  0  0  0  0
   32.6634   38.4041   59.3463 C   0  0  0  0  0  0  0  0  0  0  0  0
   33.1161   39.5061   58.6474 C   0  0  0  0  0  0  0  0  0  0  0  0
   33.4472   39.3897   57.3098 C   0  0  0  0  0  0  0  0  0  0  0  0
   33.3262   38.1708   56.6688 C   0  0  0  0  0  0  0  0  0  0  0  0
   32.8739   37.0656   57.3636 C   0  0  0  0  0  0  0  0  0  0  0  0
   32.7418   35.7372   56.6641 C   0  0  0  0  0  0  0  0  0  0  0  0
   34.0018   34.9919   56.7868 N   0  0  0  0  0  0  0  0  0  0  0  0
   34.0899   34.0189   55.8321 N   0  0  0  0  0  0  0  0  0  0  0  0
   33.2429   32.9772   55.6493 C   0  0  0  0  0  0  0  0  0  0  0  0
   33.6854   32.2910   54.6311 N   0  0  0  0  0  0  0  0  0  0  0  0
   34.7579   32.8350   54.1756 N   0  0  0  0  0  0  0  0  0  0  0  0
   35.0452   33.8963   54.8790 C   0  0  0  0  0  0  0  0  0  0  0  0
   31.6413   32.2850   62.3437 H   0  0  0  0  0  0  0  0  0  0  0  0
   30.5849   33.1658   64.3855 H   0  0  0  0  0  0  0  0  0  0  0  0
   29.6241   35.4325   64.3959 H   0  0  0  0  0  0  0  0  0  0  0  0
   30.5744   37.2166   60.2227 H   0  0  0  0  0  0  0  0  0  0  0  0
   30.0534   35.8216   59.2477 H   0  0  0  0  0  0  0  0  0  0  0  0
   32.4046   38.4956   60.3908 H   0  0  0  0  0  0  0  0  0  0  0  0
   33.2073   40.4604   59.1446 H   0  0  0  0  0  0  0  0  0  0  0  0
   33.8010   40.2525   56.7649 H   0  0  0  0  0  0  0  0  0  0  0  0
   33.5854   38.0825   55.6241 H   0  0  0  0  0  0  0  0  0  0  0  0
   31.9350   35.1645   57.1212 H   0  0  0  0  0  0  0  0  0  0  0  0
   32.5184   35.9022   55.6101 H   0  0  0  0  0  0  0  0  0  0  0  0
   34.1023   34.6012   57.7116 H   0  0  0  0  0  0  0  0  0  0  0  0
   32.3633   32.7570   56.2361 H   0  0  0  0  0  0  0  0  0  0  0  0
   35.8882   34.5545   54.7294 H   0  0  0  0  0  0  0  0  0  0  0  0
  1  2  1  0  0  0  0
  2  8  2  0  0  0  0
  2  3  1  0  0  0  0
  3  4  2  0  0  0  0
  3 24  1  0  0  0  0
  4  5  1  0  0  0  0
  4 25  1  0  0  0  0
  5  6  2  0  0  0  0
  5 26  1  0  0  0  0
  6  7  1  0  0  0  0
  6  8  1  0  0  0  0
  8  9  1  0  0  0  0
  9 10  1  0  0  0  0
  9 27  1  0  0  0  0
  9 28  1  0  0  0  0
 10 11  1  0  0  0  0
 11 16  2  0  0  0  0
 11 12  1  0  0  0  0
 12 13  2  0  0  0  0
 12 29  1  0  0  0  0
 13 14  1  0  0  0  0
 13 30  1  0  0  0  0
 14 15  2  0  0  0  0
 14 31  1  0  0  0  0
 15 16  1  0  0  0  0
 15 32  1  0  0  0  0
 16 17  1  0  0  0  0
 17 18  1  0  0  0  0
 17 33  1  0  0  0  0
 17 34  1  0  0  0  0
 18 19  1  0  0  0  0
 18 35  1  0  0  0  0
 19 23  1  0  0  0  0
 19 20  1  0  0  0  0
 20 21  2  0  0  0  0
 20 36  1  0  0  0  0
 21 22  1  0  0  0  0
 22 23  2  0  0  0  0
 23 37  1  0  0  0  0
M  END
$$$$
