ZINC000000006561      none
 OpenBabel11202420153D

 35 37  0  0  0  0  0  0  0  0999 V2000
   30.2756   37.5527   59.9499 O   0  0  0  0  0  0  0  0  0  0  0  0
   31.0694   38.0441   60.7240 C   0  0  0  0  0  0  0  0  0  0  0  0
   30.6404   38.3855   62.1277 C   0  0  0  0  0  0  0  0  0  0  0  0
   30.1745   37.1354   62.8286 C   0  0  0  0  0  0  0  0  0  0  0  0
   28.8473   36.7562   62.7568 C   0  0  0  0  0  0  0  0  0  0  0  0
   28.4198   35.6095   63.3993 C   0  0  0  0  0  0  0  0  0  0  0  0
   29.3190   34.8406   64.1149 C   0  0  0  0  0  0  0  0  0  0  0  0
   30.6462   35.2179   64.1883 C   0  0  0  0  0  0  0  0  0  0  0  0
   31.0769   36.3632   63.5400 C   0  0  0  0  0  0  0  0  0  0  0  0
   32.3754   36.7299   63.6063 F   0  0  0  0  0  0  0  0  0  0  0  0
   32.3351   38.2849   60.3288 N   0  0  0  0  0  0  0  0  0  0  0  0
   32.7297   37.9709   59.0378 C   0  0  0  0  0  0  0  0  0  0  0  0
   32.6577   36.6906   58.6088 C   0  0  0  0  0  0  0  0  0  0  0  0
   32.0711   35.4594   59.6828 Cl  0  0  0  0  0  0  0  0  0  0  0  0
   33.0628   36.3295   57.2464 C   0  0  0  0  0  0  0  0  0  0  0  0
   32.9878   35.1740   56.8752 O   0  0  0  0  0  0  0  0  0  0  0  0
   33.5637   37.3731   56.3235 C   0  0  0  0  0  0  0  0  0  0  0  0
   33.9516   37.0505   55.0295 C   0  0  0  0  0  0  0  0  0  0  0  0
   34.4170   38.0439   54.1817 C   0  0  0  0  0  0  0  0  0  0  0  0
   34.4985   39.3532   54.6154 C   0  0  0  0  0  0  0  0  0  0  0  0
   34.1151   39.6908   55.9039 C   0  0  0  0  0  0  0  0  0  0  0  0
   33.6462   38.7054   56.7650 C   0  0  0  0  0  0  0  0  0  0  0  0
   33.2306   39.0401   58.1442 C   0  0  0  0  0  0  0  0  0  0  0  0
   33.2963   40.1862   58.5405 O   0  0  0  0  0  0  0  0  0  0  0  0
   31.4826   38.8142   62.6708 H   0  0  0  0  0  0  0  0  0  0  0  0
   29.8249   39.1079   62.0928 H   0  0  0  0  0  0  0  0  0  0  0  0
   28.1441   37.3561   62.1982 H   0  0  0  0  0  0  0  0  0  0  0  0
   27.3826   35.3141   63.3426 H   0  0  0  0  0  0  0  0  0  0  0  0
   28.9838   33.9450   64.6167 H   0  0  0  0  0  0  0  0  0  0  0  0
   31.3484   34.6173   64.7477 H   0  0  0  0  0  0  0  0  0  0  0  0
   32.9701   38.6779   60.9478 H   0  0  0  0  0  0  0  0  0  0  0  0
   33.8909   36.0288   54.6847 H   0  0  0  0  0  0  0  0  0  0  0  0
   34.7181   37.7927   53.1754 H   0  0  0  0  0  0  0  0  0  0  0  0
   34.8629   40.1185   53.9461 H   0  0  0  0  0  0  0  0  0  0  0  0
   34.1802   40.7159   56.2375 H   0  0  0  0  0  0  0  0  0  0  0  0
  1  2  2  0  0  0  0
  2  3  1  0  0  0  0
  2 11  1  0  0  0  0
  3  4  1  0  0  0  0
  3 25  1  0  0  0  0
  3 26  1  0  0  0  0
  4  9  2  0  0  0  0
  4  5  1  0  0  0  0
  5  6  2  0  0  0  0
  5 27  1  0  0  0  0
  6  7  1  0  0  0  0
  6 28  1  0  0  0  0
  7  8  2  0  0  0  0
  7 29  1  0  0  0  0
  8  9  1  0  0  0  0
  8 30  1  0  0  0  0
  9 10  1  0  0  0  0
 11 12  1  0  0  0  0
 11 31  1  0  0  0  0
 12 23  1  0  0  0  0
 12 13  2  0  0  0  0
 13 14  1  0  0  0  0
 13 15  1  0  0  0  0
 15 16  2  0  0  0  0
 15 17  1  0  0  0  0
 17 22  2  0  0  0  0
 17 18  1  0  0  0  0
 18 19  2  0  0  0  0
 18 32  1  0  0  0  0
 19 20  1  0  0  0  0
 19 33  1  0  0  0  0
 20 21  2  0  0  0  0
 20 34  1  0  0  0  0
 21 22  1  0  0  0  0
 21 35  1  0  0  0  0
 22 23  1  0  0  0  0
 23 24  2  0  0  0  0
M  END
$$$$
