ZINC000000049324      none
 OpenBabel11202420153D

 53 56  0  0  0  0  0  0  0  0999 V2000
   31.8299   42.5315   68.7708 C   0  0  0  0  0  0  0  0  0  0  0  0
   31.5710   41.1671   68.1287 C   0  0  0  0  0  0  0  0  0  0  0  0
   30.0765   41.0167   67.8313 C   0  0  0  0  0  0  0  0  0  0  0  0
   29.8322   39.6757   67.1356 C   0  0  0  0  0  0  0  0  0  0  0  0
   30.6055   39.6219   65.8884 N   0  0  0  0  0  0  0  0  0  0  0  0
   30.3083   38.4808   65.1711 C   0  0  0  0  0  0  0  0  0  0  0  0
   30.3887   38.4901   63.8442 N   0  0  0  0  0  0  0  0  0  0  0  0
   30.0977   37.3924   63.1530 C   0  0  0  0  0  0  0  0  0  0  0  0
   30.1766   37.4034   61.7752 N   0  0  0  0  0  0  0  0  0  0  0  0
   31.5171   37.8082   61.3275 C   0  0  0  0  0  0  0  0  0  0  0  0
   31.5430   37.8646   59.7978 C   0  0  0  0  0  0  0  0  0  0  0  0
   31.1582   36.5913   59.2723 O   0  0  0  0  0  0  0  0  0  0  0  0
   29.8574   36.1663   59.6876 C   0  0  0  0  0  0  0  0  0  0  0  0
   29.8144   36.0927   61.2163 C   0  0  0  0  0  0  0  0  0  0  0  0
   29.7360   36.2828   63.7893 N   0  0  0  0  0  0  0  0  0  0  0  0
   29.6603   36.2721   65.1165 C   0  0  0  0  0  0  0  0  0  0  0  0
   29.2853   35.1199   65.7771 N   0  0  0  0  0  0  0  0  0  0  0  0
   30.3061   34.7173   66.7553 C   0  0  0  0  0  0  0  0  0  0  0  0
   29.8240   33.4726   67.5051 C   0  0  0  0  0  0  0  0  0  0  0  0
   29.5383   32.4354   66.5628 O   0  0  0  0  0  0  0  0  0  0  0  0
   28.5476   32.7934   65.5955 C   0  0  0  0  0  0  0  0  0  0  0  0
   29.0168   34.0312   64.8264 C   0  0  0  0  0  0  0  0  0  0  0  0
   29.9449   37.3719   65.8073 N   0  0  0  0  0  0  0  0  0  0  0  0
   32.0469   39.7168   66.1527 C   0  0  0  0  0  0  0  0  0  0  0  0
   32.3573   41.0590   66.8192 C   0  0  0  0  0  0  0  0  0  0  0  0
   31.2654   42.6085   69.7002 H   0  0  0  0  0  0  0  0  0  0  0  0
   32.8940   42.6376   68.9821 H   0  0  0  0  0  0  0  0  0  0  0  0
   31.5146   43.3202   68.0878 H   0  0  0  0  0  0  0  0  0  0  0  0
   31.8882   40.3776   68.8101 H   0  0  0  0  0  0  0  0  0  0  0  0
   29.7514   41.8287   67.1810 H   0  0  0  0  0  0  0  0  0  0  0  0
   29.5141   41.0502   68.7645 H   0  0  0  0  0  0  0  0  0  0  0  0
   28.7710   39.5718   66.9097 H   0  0  0  0  0  0  0  0  0  0  0  0
   30.1450   38.8637   67.7922 H   0  0  0  0  0  0  0  0  0  0  0  0
   32.2521   37.0833   61.6775 H   0  0  0  0  0  0  0  0  0  0  0  0
   31.7542   38.7922   61.7321 H   0  0  0  0  0  0  0  0  0  0  0  0
   32.5500   38.1086   59.4596 H   0  0  0  0  0  0  0  0  0  0  0  0
   30.8470   38.6275   59.4492 H   0  0  0  0  0  0  0  0  0  0  0  0
   29.1120   36.8798   59.3366 H   0  0  0  0  0  0  0  0  0  0  0  0
   29.6453   35.1822   59.2699 H   0  0  0  0  0  0  0  0  0  0  0  0
   30.5222   35.3403   61.5645 H   0  0  0  0  0  0  0  0  0  0  0  0
   28.8090   35.8241   61.5403 H   0  0  0  0  0  0  0  0  0  0  0  0
   31.2381   34.4916   66.2368 H   0  0  0  0  0  0  0  0  0  0  0  0
   30.4705   35.5284   67.4644 H   0  0  0  0  0  0  0  0  0  0  0  0
   28.9213   33.7129   68.0667 H   0  0  0  0  0  0  0  0  0  0  0  0
   30.6011   33.1367   68.1916 H   0  0  0  0  0  0  0  0  0  0  0  0
   27.6078   33.0139   66.1015 H   0  0  0  0  0  0  0  0  0  0  0  0
   28.4020   31.9664   64.9003 H   0  0  0  0  0  0  0  0  0  0  0  0
   28.2401   34.3415   64.1274 H   0  0  0  0  0  0  0  0  0  0  0  0
   29.9279   33.7952   64.2765 H   0  0  0  0  0  0  0  0  0  0  0  0
   32.3491   38.9046   66.8137 H   0  0  0  0  0  0  0  0  0  0  0  0
   32.5941   39.6428   65.2129 H   0  0  0  0  0  0  0  0  0  0  0  0
   32.0680   41.8717   66.1529 H   0  0  0  0  0  0  0  0  0  0  0  0
   33.4249   41.1233   67.0293 H   0  0  0  0  0  0  0  0  0  0  0  0
  1  2  1  0  0  0  0
  1 26  1  0  0  0  0
  1 27  1  0  0  0  0
  1 28  1  0  0  0  0
  2 25  1  0  0  0  0
  2  3  1  0  0  0  0
  2 29  1  0  0  0  0
  3  4  1  0  0  0  0
  3 30  1  0  0  0  0
  3 31  1  0  0  0  0
  4  5  1  0  0  0  0
  4 32  1  0  0  0  0
  4 33  1  0  0  0  0
  5  6  1  0  0  0  0
  5 24  1  0  0  0  0
  6 23  2  0  0  0  0
  6  7  1  0  0  0  0
  7  8  2  0  0  0  0
  8  9  1  0  0  0  0
  8 15  1  0  0  0  0
  9 14  1  0  0  0  0
  9 10  1  0  0  0  0
 10 11  1  0  0  0  0
 10 34  1  0  0  0  0
 10 35  1  0  0  0  0
 11 12  1  0  0  0  0
 11 36  1  0  0  0  0
 11 37  1  0  0  0  0
 12 13  1  0  0  0  0
 13 14  1  0  0  0  0
 13 38  1  0  0  0  0
 13 39  1  0  0  0  0
 14 40  1  0  0  0  0
 14 41  1  0  0  0  0
 15 16  2  0  0  0  0
 16 17  1  0  0  0  0
 16 23  1  0  0  0  0
 17 22  1  0  0  0  0
 17 18  1  0  0  0  0
 18 19  1  0  0  0  0
 18 42  1  0  0  0  0
 18 43  1  0  0  0  0
 19 20  1  0  0  0  0
 19 44  1  0  0  0  0
 19 45  1  0  0  0  0
 20 21  1  0  0  0  0
 21 22  1  0  0  0  0
 21 46  1  0  0  0  0
 21 47  1  0  0  0  0
 22 48  1  0  0  0  0
 22 49  1  0  0  0  0
 24 25  1  0  0  0  0
 24 50  1  0  0  0  0
 24 51  1  0  0  0  0
 25 52  1  0  0  0  0
 25 53  1  0  0  0  0
M  END
$$$$
