ZINC000000043488      none
 OpenBabel11202420153D

 33 34  0  0  0  0  0  0  0  0999 V2000
   33.7069   34.7111   55.4021 C   0  0  0  0  0  0  0  0  0  0  0  0
   33.3130   36.0844   55.7269 N   0  0  0  0  0  0  0  0  0  0  0  0
   33.2685   37.1021   54.6740 C   0  0  0  0  0  0  0  0  0  0  0  0
   32.9792   36.4238   57.0426 C   0  0  0  0  0  0  0  0  0  0  0  0
   32.4188   35.4719   57.8845 C   0  0  0  0  0  0  0  0  0  0  0  0
   32.0890   35.8071   59.1827 C   0  0  0  0  0  0  0  0  0  0  0  0
   32.3129   37.0972   59.6449 C   0  0  0  0  0  0  0  0  0  0  0  0
   31.9734   37.4387   60.9605 N   0  0  0  0  0  0  0  0  0  0  0  0
   30.6962   37.3298   61.3767 C   0  0  0  0  0  0  0  0  0  0  0  0
   29.8365   36.9344   60.6086 O   0  0  0  0  0  0  0  0  0  0  0  0
   30.3540   37.6739   62.7020 C   0  0  0  0  0  0  0  0  0  0  0  0
   29.8633   39.2719   63.2513 S   0  0  0  0  0  0  0  0  0  0  0  0
   29.6838   38.7025   64.8512 C   0  0  0  0  0  0  0  0  0  0  0  0
   29.1898   39.6636   66.1791 S   0  0  0  0  0  0  0  0  0  0  0  0
   29.9868   37.4100   64.9228 N   0  0  0  0  0  0  0  0  0  0  0  0
   29.9464   36.9156   65.7564 H   0  0  0  0  0  0  0  0  0  0  0  0
   30.3550   36.8303   63.7603 C   0  0  0  0  0  0  0  0  0  0  0  0
   30.7002   35.5006   63.6606 N   0  0  0  0  0  0  0  0  0  0  0  0
   32.8782   38.0476   58.8049 C   0  0  0  0  0  0  0  0  0  0  0  0
   33.2080   37.7126   57.5068 C   0  0  0  0  0  0  0  0  0  0  0  0
   32.8925   34.0310   55.6510 H   0  0  0  0  0  0  0  0  0  0  0  0
   33.9282   34.6389   54.3373 H   0  0  0  0  0  0  0  0  0  0  0  0
   34.5934   34.4420   55.9765 H   0  0  0  0  0  0  0  0  0  0  0  0
   34.2395   37.5919   54.6008 H   0  0  0  0  0  0  0  0  0  0  0  0
   33.0271   36.6296   53.7218 H   0  0  0  0  0  0  0  0  0  0  0  0
   32.5057   37.8421   54.9161 H   0  0  0  0  0  0  0  0  0  0  0  0
   32.2412   34.4696   57.5238 H   0  0  0  0  0  0  0  0  0  0  0  0
   31.6528   35.0671   59.8373 H   0  0  0  0  0  0  0  0  0  0  0  0
   32.6576   37.7534   61.5719 H   0  0  0  0  0  0  0  0  0  0  0  0
   30.9578   35.1296   62.8022 H   0  0  0  0  0  0  0  0  0  0  0  0
   30.6855   34.9353   64.4486 H   0  0  0  0  0  0  0  0  0  0  0  0
   33.0558   39.0499   59.1657 H   0  0  0  0  0  0  0  0  0  0  0  0
   33.6435   38.4530   56.8520 H   0  0  0  0  0  0  0  0  0  0  0  0
  1  2  1  0  0  0  0
  1 21  1  0  0  0  0
  1 22  1  0  0  0  0
  1 23  1  0  0  0  0
  2  3  1  0  0  0  0
  2  4  1  0  0  0  0
  3 24  1  0  0  0  0
  3 25  1  0  0  0  0
  3 26  1  0  0  0  0
  4 20  2  0  0  0  0
  4  5  1  0  0  0  0
  5  6  2  0  0  0  0
  5 27  1  0  0  0  0
  6  7  1  0  0  0  0
  6 28  1  0  0  0  0
  7  8  1  0  0  0  0
  7 19  2  0  0  0  0
  8  9  1  0  0  0  0
  8 29  1  0  0  0  0
  9 10  2  0  0  0  0
  9 11  1  0  0  0  0
 11 17  2  0  0  0  0
 11 12  1  0  0  0  0
 12 13  1  0  0  0  0
 13 14  2  0  0  0  0
 13 15  1  0  0  0  0
 15 16  1  0  0  0  0
 15 17  1  0  0  0  0
 17 18  1  0  0  0  0
 18 30  1  0  0  0  0
 18 31  1  0  0  0  0
 19 20  1  0  0  0  0
 19 32  1  0  0  0  0
 20 33  1  0  0  0  0
M  END
$$$$
