ZINC000000035464      none
 OpenBabel11202420153D

 44 46  0  0  0  0  0  0  0  0999 V2000
   29.7777   33.5068   65.2648 C   0  0  0  0  0  0  0  0  0  0  0  0
   30.6770   34.5979   65.0584 O   0  0  0  0  0  0  0  0  0  0  0  0
   30.3581   35.4836   64.0769 C   0  0  0  0  0  0  0  0  0  0  0  0
   30.8053   35.2748   62.7862 C   0  0  0  0  0  0  0  0  0  0  0  0
   30.4791   36.1901   61.7803 C   0  0  0  0  0  0  0  0  0  0  0  0
   30.9562   35.9757   60.4047 C   0  0  0  0  0  0  0  0  0  0  0  0
   32.1016   36.4693   60.0282 N   0  0  0  0  0  0  0  0  0  0  0  0
   32.5425   36.2749   58.7479 C   0  0  0  0  0  0  0  0  0  0  0  0
   32.8196   37.2438   57.8277 C   0  0  0  0  0  0  0  0  0  0  0  0
   32.6910   38.7290   58.0477 C   0  0  0  0  0  0  0  0  0  0  0  0
   33.2349   36.6429   56.6775 N   0  0  0  0  0  0  0  0  0  0  0  0
   33.6299   37.3430   55.4527 C   0  0  0  0  0  0  0  0  0  0  0  0
   33.2201   35.2542   56.8445 N   0  0  0  0  0  0  0  0  0  0  0  0
   33.5773   34.3093   55.8773 C   0  0  0  0  0  0  0  0  0  0  0  0
   34.1236   33.0917   56.2621 C   0  0  0  0  0  0  0  0  0  0  0  0
   34.4696   32.1585   55.3047 C   0  0  0  0  0  0  0  0  0  0  0  0
   34.2837   32.4396   53.9639 C   0  0  0  0  0  0  0  0  0  0  0  0
   33.7456   33.6536   53.5769 C   0  0  0  0  0  0  0  0  0  0  0  0
   33.3918   34.5889   54.5295 C   0  0  0  0  0  0  0  0  0  0  0  0
   32.8024   34.9821   58.0981 C   0  0  0  0  0  0  0  0  0  0  0  0
   32.6672   33.8793   58.5952 O   0  0  0  0  0  0  0  0  0  0  0  0
   29.6934   37.3065   62.0842 C   0  0  0  0  0  0  0  0  0  0  0  0
   29.2475   37.5046   63.3732 C   0  0  0  0  0  0  0  0  0  0  0  0
   29.5756   36.5985   64.3719 C   0  0  0  0  0  0  0  0  0  0  0  0
   29.1323   36.7987   65.6408 O   0  0  0  0  0  0  0  0  0  0  0  0
   28.7925   33.8925   65.5271 H   0  0  0  0  0  0  0  0  0  0  0  0
   29.7055   32.9175   64.3506 H   0  0  0  0  0  0  0  0  0  0  0  0
   30.1488   32.8780   66.0740 H   0  0  0  0  0  0  0  0  0  0  0  0
   31.4083   34.4091   62.5556 H   0  0  0  0  0  0  0  0  0  0  0  0
   30.3547   35.4133   59.7060 H   0  0  0  0  0  0  0  0  0  0  0  0
   32.3402   38.9170   59.0625 H   0  0  0  0  0  0  0  0  0  0  0  0
   33.6622   39.2028   57.9054 H   0  0  0  0  0  0  0  0  0  0  0  0
   31.9775   39.1416   57.3344 H   0  0  0  0  0  0  0  0  0  0  0  0
   32.7592   37.4683   54.8090 H   0  0  0  0  0  0  0  0  0  0  0  0
   34.0364   38.3214   55.7086 H   0  0  0  0  0  0  0  0  0  0  0  0
   34.3878   36.7602   54.9293 H   0  0  0  0  0  0  0  0  0  0  0  0
   34.2733   32.8732   57.3092 H   0  0  0  0  0  0  0  0  0  0  0  0
   34.8896   31.2094   55.6036 H   0  0  0  0  0  0  0  0  0  0  0  0
   34.5595   31.7099   53.2168 H   0  0  0  0  0  0  0  0  0  0  0  0
   33.6016   33.8702   52.5286 H   0  0  0  0  0  0  0  0  0  0  0  0
   32.9710   35.5363   54.2268 H   0  0  0  0  0  0  0  0  0  0  0  0
   29.4366   38.0132   61.3090 H   0  0  0  0  0  0  0  0  0  0  0  0
   28.6409   38.3671   63.6067 H   0  0  0  0  0  0  0  0  0  0  0  0
   29.4106   36.1162   66.2668 H   0  0  0  0  0  0  0  0  0  0  0  0
  1  2  1  0  0  0  0
  1 26  1  0  0  0  0
  1 27  1  0  0  0  0
  1 28  1  0  0  0  0
  2  3  1  0  0  0  0
  3 24  2  0  0  0  0
  3  4  1  0  0  0  0
  4  5  2  0  0  0  0
  4 29  1  0  0  0  0
  5  6  1  0  0  0  0
  5 22  1  0  0  0  0
  6  7  2  0  0  0  0
  6 30  1  0  0  0  0
  7  8  1  0  0  0  0
  8 20  1  0  0  0  0
  8  9  2  0  0  0  0
  9 10  1  0  0  0  0
  9 11  1  0  0  0  0
 10 31  1  0  0  0  0
 10 32  1  0  0  0  0
 10 33  1  0  0  0  0
 11 12  1  0  0  0  0
 11 13  1  0  0  0  0
 12 34  1  0  0  0  0
 12 35  1  0  0  0  0
 12 36  1  0  0  0  0
 13 14  1  0  0  0  0
 13 20  1  0  0  0  0
 14 19  2  0  0  0  0
 14 15  1  0  0  0  0
 15 16  2  0  0  0  0
 15 37  1  0  0  0  0
 16 17  1  0  0  0  0
 16 38  1  0  0  0  0
 17 18  2  0  0  0  0
 17 39  1  0  0  0  0
 18 19  1  0  0  0  0
 18 40  1  0  0  0  0
 19 41  1  0  0  0  0
 20 21  2  0  0  0  0
 22 23  2  0  0  0  0
 22 42  1  0  0  0  0
 23 24  1  0  0  0  0
 23 43  1  0  0  0  0
 24 25  1  0  0  0  0
 25 44  1  0  0  0  0
M  END
$$$$
