ZINC000000033221      none
 OpenBabel11202420153D

 36 38  0  0  0  0  0  0  0  0999 V2000
   33.1644   39.1012   58.1447 N   0  0  0  0  0  0  0  0  0  0  0  0
   33.0628   37.9980   57.8938 C   0  0  0  0  0  0  0  0  0  0  0  0
   32.9348   36.6072   57.5775 C   0  0  0  0  0  0  0  0  0  0  0  0
   32.4905   35.6730   58.4695 C   0  0  0  0  0  0  0  0  0  0  0  0
   32.1125   35.9475   59.7766 N   0  0  0  0  0  0  0  0  0  0  0  0
   32.2679   35.0114   60.7337 C   0  0  0  0  0  0  0  0  0  0  0  0
   32.7380   33.9291   60.4529 O   0  0  0  0  0  0  0  0  0  0  0  0
   31.8574   35.3093   62.1528 C   0  0  0  0  0  0  0  0  0  0  0  0
   32.0467   37.0800   62.4764 S   0  0  0  0  0  0  0  0  0  0  0  0
   32.1050   37.0649   64.2373 C   0  0  0  0  0  0  0  0  0  0  0  0
   31.0825   37.1638   65.0101 N   0  0  0  0  0  0  0  0  0  0  0  0
   31.2602   37.1375   66.4447 C   0  0  0  0  0  0  0  0  0  0  0  0
   32.7426   36.9851   66.8196 C   0  0  0  0  0  0  0  0  0  0  0  0
   33.5773   36.9034   65.2020 S   0  0  0  0  0  0  0  0  0  0  0  0
   32.4568   34.1273   57.7568 S   0  0  0  0  0  0  0  0  0  0  0  0
   33.0600   34.7300   56.2218 C   0  0  0  0  0  0  0  0  0  0  0  0
   33.2679   36.0515   56.2794 C   0  0  0  0  0  0  0  0  0  0  0  0
   33.7894   36.8705   55.1095 C   0  0  0  0  0  0  0  0  0  0  0  0
   34.4161   35.9220   54.0850 C   0  0  0  0  0  0  0  0  0  0  0  0
   33.4277   34.7943   53.7728 C   0  0  0  0  0  0  0  0  0  0  0  0
   33.3146   33.8773   54.9939 C   0  0  0  0  0  0  0  0  0  0  0  0
   31.7366   36.8130   60.0010 H   0  0  0  0  0  0  0  0  0  0  0  0
   30.8159   35.0228   62.2975 H   0  0  0  0  0  0  0  0  0  0  0  0
   32.4883   34.7450   62.8396 H   0  0  0  0  0  0  0  0  0  0  0  0
   30.8778   38.0658   66.8692 H   0  0  0  0  0  0  0  0  0  0  0  0
   30.7005   36.2987   66.8587 H   0  0  0  0  0  0  0  0  0  0  0  0
   33.0858   37.8485   67.3899 H   0  0  0  0  0  0  0  0  0  0  0  0
   32.9049   36.0641   67.3794 H   0  0  0  0  0  0  0  0  0  0  0  0
   32.9651   37.4142   54.6478 H   0  0  0  0  0  0  0  0  0  0  0  0
   34.5401   37.5769   55.4638 H   0  0  0  0  0  0  0  0  0  0  0  0
   34.6426   36.4712   53.1710 H   0  0  0  0  0  0  0  0  0  0  0  0
   35.3339   35.4992   54.4937 H   0  0  0  0  0  0  0  0  0  0  0  0
   32.4504   35.2191   53.5438 H   0  0  0  0  0  0  0  0  0  0  0  0
   33.7868   34.2209   52.9183 H   0  0  0  0  0  0  0  0  0  0  0  0
   34.2434   33.3212   55.1213 H   0  0  0  0  0  0  0  0  0  0  0  0
   32.4865   33.1826   54.8533 H   0  0  0  0  0  0  0  0  0  0  0  0
  1  2  3  0  0  0  0
  2  3  1  0  0  0  0
  3 17  1  0  0  0  0
  3  4  2  0  0  0  0
  4  5  1  0  0  0  0
  4 15  1  0  0  0  0
  5  6  1  0  0  0  0
  5 22  1  0  0  0  0
  6  7  2  0  0  0  0
  6  8  1  0  0  0  0
  8  9  1  0  0  0  0
  8 23  1  0  0  0  0
  8 24  1  0  0  0  0
  9 10  1  0  0  0  0
 10 14  1  0  0  0  0
 10 11  2  0  0  0  0
 11 12  1  0  0  0  0
 12 13  1  0  0  0  0
 12 25  1  0  0  0  0
 12 26  1  0  0  0  0
 13 14  1  0  0  0  0
 13 27  1  0  0  0  0
 13 28  1  0  0  0  0
 15 16  1  0  0  0  0
 16 21  1  0  0  0  0
 16 17  2  0  0  0  0
 17 18  1  0  0  0  0
 18 19  1  0  0  0  0
 18 29  1  0  0  0  0
 18 30  1  0  0  0  0
 19 20  1  0  0  0  0
 19 31  1  0  0  0  0
 19 32  1  0  0  0  0
 20 21  1  0  0  0  0
 20 33  1  0  0  0  0
 20 34  1  0  0  0  0
 21 35  1  0  0  0  0
 21 36  1  0  0  0  0
M  END
$$$$
