ZINC000000031618      none
 OpenBabel11202420163D

 29 31  0  0  0  0  0  0  0  0999 V2000
   29.3456   36.2769   60.3419 N   0  0  0  0  0  0  0  0  0  0  0  0
   30.2549   36.3146   61.3606 N   0  0  0  0  0  0  0  0  0  0  0  0
   31.5809   36.1056   61.0964 C   0  0  0  0  0  0  0  0  0  0  0  0
   31.9879   35.8435   59.7004 C   0  0  0  0  0  0  0  0  0  0  0  0
   32.0302   34.5346   59.2162 C   0  0  0  0  0  0  0  0  0  0  0  0
   32.4114   34.2967   57.9124 C   0  0  0  0  0  0  0  0  0  0  0  0
   32.7517   35.3516   57.0834 C   0  0  0  0  0  0  0  0  0  0  0  0
   32.7123   36.6509   57.5552 C   0  0  0  0  0  0  0  0  0  0  0  0
   32.3325   36.9040   58.8589 C   0  0  0  0  0  0  0  0  0  0  0  0
   32.2829   38.5355   59.4500 Cl  0  0  0  0  0  0  0  0  0  0  0  0
   32.5061   36.1321   62.0211 N   0  0  0  0  0  0  0  0  0  0  0  0
   32.2075   36.3657   63.3147 C   0  0  0  0  0  0  0  0  0  0  0  0
   33.1982   36.3929   64.3006 C   0  0  0  0  0  0  0  0  0  0  0  0
   32.8555   36.6326   65.6015 C   0  0  0  0  0  0  0  0  0  0  0  0
   31.5325   36.8510   65.9634 C   0  0  0  0  0  0  0  0  0  0  0  0
   30.5335   36.8304   65.0145 C   0  0  0  0  0  0  0  0  0  0  0  0
   30.8605   36.5877   63.6817 C   0  0  0  0  0  0  0  0  0  0  0  0
   29.8380   36.5532   62.6260 C   0  0  0  0  0  0  0  0  0  0  0  0
   28.6617   36.7367   62.8796 O   0  0  0  0  0  0  0  0  0  0  0  0
   28.4041   36.3639   60.6942 H   0  0  0  0  0  0  0  0  0  0  0  0
   29.5419   36.9898   59.6554 H   0  0  0  0  0  0  0  0  0  0  0  0
   31.7647   33.7101   59.8613 H   0  0  0  0  0  0  0  0  0  0  0  0
   32.4445   33.2846   57.5370 H   0  0  0  0  0  0  0  0  0  0  0  0
   33.0451   35.1595   56.0619 H   0  0  0  0  0  0  0  0  0  0  0  0
   32.9796   37.4694   56.9032 H   0  0  0  0  0  0  0  0  0  0  0  0
   34.2314   36.2247   64.0349 H   0  0  0  0  0  0  0  0  0  0  0  0
   33.6248   36.6526   66.3592 H   0  0  0  0  0  0  0  0  0  0  0  0
   31.2846   37.0389   66.9978 H   0  0  0  0  0  0  0  0  0  0  0  0
   29.5062   37.0004   65.3012 H   0  0  0  0  0  0  0  0  0  0  0  0
  1  2  1  0  0  0  0
  1 20  1  0  0  0  0
  1 21  1  0  0  0  0
  2 18  1  0  0  0  0
  2  3  1  0  0  0  0
  3  4  1  0  0  0  0
  3 11  2  0  0  0  0
  4  9  2  0  0  0  0
  4  5  1  0  0  0  0
  5  6  2  0  0  0  0
  5 22  1  0  0  0  0
  6  7  1  0  0  0  0
  6 23  1  0  0  0  0
  7  8  2  0  0  0  0
  7 24  1  0  0  0  0
  8  9  1  0  0  0  0
  8 25  1  0  0  0  0
  9 10  1  0  0  0  0
 11 12  1  0  0  0  0
 12 17  2  0  0  0  0
 12 13  1  0  0  0  0
 13 14  2  0  0  0  0
 13 26  1  0  0  0  0
 14 15  1  0  0  0  0
 14 27  1  0  0  0  0
 15 16  2  0  0  0  0
 15 28  1  0  0  0  0
 16 17  1  0  0  0  0
 16 29  1  0  0  0  0
 17 18  1  0  0  0  0
 18 19  2  0  0  0  0
M  END
$$$$
