ZINC000000044606      none
 OpenBabel11202420153D

 40 42  0  0  1  0  0  0  0  0999 V2000
   30.5237   38.2255   62.6728 O   0  0  0  0  0  0  0  0  0  0  0  0
   31.6062   37.6911   62.8265 C   0  0  0  0  0  0  0  0  0  0  0  0
   32.1475   36.9658   61.8278 N   0  0  0  0  0  0  0  0  0  0  0  0
   31.4328   36.8208   60.5572 C   0  0  1  0  0  0  0  0  0  0  0  0
   30.8255   37.7082   60.3787 H   0  0  0  0  0  0  0  0  0  0  0  0
   32.3999   36.6635   59.4681 N   0  0  0  0  0  0  0  0  0  0  0  0
   32.8866   37.7898   58.7971 C   0  0  0  0  0  0  0  0  0  0  0  0
   32.9904   39.0045   59.4611 C   0  0  0  0  0  0  0  0  0  0  0  0
   33.4661   40.1169   58.7940 C   0  0  0  0  0  0  0  0  0  0  0  0
   33.8387   40.0224   57.4657 C   0  0  0  0  0  0  0  0  0  0  0  0
   33.7377   38.8147   56.8000 C   0  0  0  0  0  0  0  0  0  0  0  0
   33.2624   37.6972   57.4613 C   0  0  0  0  0  0  0  0  0  0  0  0
   33.1635   36.5171   56.8109 F   0  0  0  0  0  0  0  0  0  0  0  0
   30.5423   35.6066   60.6176 C   0  0  0  0  0  0  0  0  0  0  0  0
   30.2948   34.9854   59.6061 O   0  0  0  0  0  0  0  0  0  0  0  0
   29.9732   35.1747   61.9042 C   0  0  0  0  0  0  0  0  0  0  0  0
   30.6657   34.2643   62.7088 C   0  0  0  0  0  0  0  0  0  0  0  0
   30.1275   33.8675   63.9148 C   0  0  0  0  0  0  0  0  0  0  0  0
   28.9011   34.3605   64.3252 C   0  0  0  0  0  0  0  0  0  0  0  0
   28.2075   35.2581   63.5323 C   0  0  0  0  0  0  0  0  0  0  0  0
   28.7343   35.6679   62.3257 C   0  0  0  0  0  0  0  0  0  0  0  0
   32.3218   37.8364   64.0985 C   0  0  0  0  0  0  0  0  0  0  0  0
   32.2464   38.9060   64.9438 C   0  0  0  0  0  0  0  0  0  0  0  0
   33.0880   38.6215   66.0306 C   0  0  0  0  0  0  0  0  0  0  0  0
   33.6333   37.4061   65.8037 C   0  0  0  0  0  0  0  0  0  0  0  0
   33.1653   36.9340   64.6410 O   0  0  0  0  0  0  0  0  0  0  0  0
   33.0104   36.5400   61.9504 H   0  0  0  0  0  0  0  0  0  0  0  0
   32.7026   35.7782   59.2124 H   0  0  0  0  0  0  0  0  0  0  0  0
   32.6991   39.0801   60.4984 H   0  0  0  0  0  0  0  0  0  0  0  0
   33.5469   41.0619   59.3107 H   0  0  0  0  0  0  0  0  0  0  0  0
   34.2099   40.8941   56.9472 H   0  0  0  0  0  0  0  0  0  0  0  0
   34.0299   38.7442   55.7626 H   0  0  0  0  0  0  0  0  0  0  0  0
   31.6210   33.8757   62.3882 H   0  0  0  0  0  0  0  0  0  0  0  0
   30.6626   33.1672   64.5390 H   0  0  0  0  0  0  0  0  0  0  0  0
   28.4830   34.0431   65.2691 H   0  0  0  0  0  0  0  0  0  0  0  0
   27.2508   35.6382   63.8592 H   0  0  0  0  0  0  0  0  0  0  0  0
   28.1915   36.3679   61.7077 H   0  0  0  0  0  0  0  0  0  0  0  0
   31.6544   39.7983   64.8033 H   0  0  0  0  0  0  0  0  0  0  0  0
   33.2661   39.2549   66.8869 H   0  0  0  0  0  0  0  0  0  0  0  0
   34.3286   36.8973   66.4550 H   0  0  0  0  0  0  0  0  0  0  0  0
  1  2  2  0  0  0  0
  2  3  1  0  0  0  0
  2 22  1  0  0  0  0
  3  4  1  0  0  0  0
  3 27  1  0  0  0  0
  4  5  1  6  0  0  0
  4  6  1  0  0  0  0
  4 14  1  0  0  0  0
  6  7  1  0  0  0  0
  6 28  1  0  0  0  0
  7 12  2  0  0  0  0
  7  8  1  0  0  0  0
  8  9  2  0  0  0  0
  8 29  1  0  0  0  0
  9 10  1  0  0  0  0
  9 30  1  0  0  0  0
 10 11  2  0  0  0  0
 10 31  1  0  0  0  0
 11 12  1  0  0  0  0
 11 32  1  0  0  0  0
 12 13  1  0  0  0  0
 14 15  2  0  0  0  0
 14 16  1  0  0  0  0
 16 21  2  0  0  0  0
 16 17  1  0  0  0  0
 17 18  2  0  0  0  0
 17 33  1  0  0  0  0
 18 19  1  0  0  0  0
 18 34  1  0  0  0  0
 19 20  2  0  0  0  0
 19 35  1  0  0  0  0
 20 21  1  0  0  0  0
 20 36  1  0  0  0  0
 21 37  1  0  0  0  0
 22 26  1  0  0  0  0
 22 23  2  0  0  0  0
 23 24  1  0  0  0  0
 23 38  1  0  0  0  0
 24 25  2  0  0  0  0
 24 39  1  0  0  0  0
 25 26  1  0  0  0  0
 25 40  1  0  0  0  0
M  END
$$$$
