ZINC000000024979      none
 OpenBabel11202420153D

 35 36  0  0  0  0  0  0  0  0999 V2000
   33.0483   34.8349   56.8751 C   0  0  0  0  0  0  0  0  0  0  0  0
   33.1971   36.2361   57.1127 O   0  0  0  0  0  0  0  0  0  0  0  0
   32.6848   36.7223   58.2715 C   0  0  0  0  0  0  0  0  0  0  0  0
   32.8005   38.0778   58.5656 C   0  0  0  0  0  0  0  0  0  0  0  0
   32.2845   38.5789   59.7380 C   0  0  0  0  0  0  0  0  0  0  0  0
   31.6403   37.7248   60.6390 C   0  0  0  0  0  0  0  0  0  0  0  0
   31.0868   38.2571   61.8957 C   0  0  0  0  0  0  0  0  0  0  0  0
   29.9400   38.6607   61.9323 O   0  0  0  0  0  0  0  0  0  0  0  0
   31.8510   38.2972   63.0050 N   0  0  0  0  0  0  0  0  0  0  0  0
   31.3254   38.8025   64.1982 C   0  0  0  0  0  0  0  0  0  0  0  0
   30.0914   39.2752   64.3788 N   0  0  0  0  0  0  0  0  0  0  0  0
   29.9423   39.6544   65.5982 N   0  0  0  0  0  0  0  0  0  0  0  0
   31.0390   39.4628   66.2485 N   0  0  0  0  0  0  0  0  0  0  0  0
   31.1980   39.6658   67.1837 H   0  0  0  0  0  0  0  0  0  0  0  0
   31.9601   38.9040   65.3473 N   0  0  0  0  0  0  0  0  0  0  0  0
   31.5241   36.3586   60.3409 C   0  0  0  0  0  0  0  0  0  0  0  0
   30.9013   35.5230   61.2094 O   0  0  0  0  0  0  0  0  0  0  0  0
   31.7137   34.9018   62.2075 C   0  0  0  0  0  0  0  0  0  0  0  0
   32.2496   33.5718   61.6738 C   0  0  0  0  0  0  0  0  0  0  0  0
   30.8751   34.6473   63.4616 C   0  0  0  0  0  0  0  0  0  0  0  0
   32.0522   35.8656   59.1601 C   0  0  0  0  0  0  0  0  0  0  0  0
   33.5003   34.5789   55.9169 H   0  0  0  0  0  0  0  0  0  0  0  0
   33.5425   34.2770   57.6705 H   0  0  0  0  0  0  0  0  0  0  0  0
   31.9887   34.5799   56.8567 H   0  0  0  0  0  0  0  0  0  0  0  0
   33.2976   38.7385   57.8708 H   0  0  0  0  0  0  0  0  0  0  0  0
   32.3769   39.6311   59.9628 H   0  0  0  0  0  0  0  0  0  0  0  0
   32.7656   37.9754   62.9758 H   0  0  0  0  0  0  0  0  0  0  0  0
   32.5489   35.5568   62.4556 H   0  0  0  0  0  0  0  0  0  0  0  0
   31.4145   32.9169   61.4258 H   0  0  0  0  0  0  0  0  0  0  0  0
   32.8692   33.0980   62.4352 H   0  0  0  0  0  0  0  0  0  0  0  0
   32.8470   33.7531   60.7803 H   0  0  0  0  0  0  0  0  0  0  0  0
   31.4946   34.1735   64.2230 H   0  0  0  0  0  0  0  0  0  0  0  0
   30.4932   35.5948   63.8419 H   0  0  0  0  0  0  0  0  0  0  0  0
   30.0399   33.9923   63.2136 H   0  0  0  0  0  0  0  0  0  0  0  0
   31.9687   34.8140   58.9290 H   0  0  0  0  0  0  0  0  0  0  0  0
  1  2  1  0  0  0  0
  1 22  1  0  0  0  0
  1 23  1  0  0  0  0
  1 24  1  0  0  0  0
  2  3  1  0  0  0  0
  3 21  2  0  0  0  0
  3  4  1  0  0  0  0
  4  5  2  0  0  0  0
  4 25  1  0  0  0  0
  5  6  1  0  0  0  0
  5 26  1  0  0  0  0
  6  7  1  0  0  0  0
  6 16  2  0  0  0  0
  7  8  2  0  0  0  0
  7  9  1  0  0  0  0
  9 10  1  0  0  0  0
  9 27  1  0  0  0  0
 10 15  2  0  0  0  0
 10 11  1  0  0  0  0
 11 12  2  0  0  0  0
 12 13  1  0  0  0  0
 13 14  1  0  0  0  0
 13 15  1  0  0  0  0
 16 17  1  0  0  0  0
 16 21  1  0  0  0  0
 17 18  1  0  0  0  0
 18 19  1  0  0  0  0
 18 20  1  0  0  0  0
 18 28  1  0  0  0  0
 19 29  1  0  0  0  0
 19 30  1  0  0  0  0
 19 31  1  0  0  0  0
 20 32  1  0  0  0  0
 20 33  1  0  0  0  0
 20 34  1  0  0  0  0
 21 35  1  0  0  0  0
M  END
$$$$
