ZINC000000003400      none
 OpenBabel11202420153D

 33 35  0  0  0  0  0  0  0  0999 V2000
   30.6152   37.4380   60.1018 N   0  0  0  0  0  0  0  0  0  0  0  0
   30.3896   37.6970   61.1846 C   0  0  0  0  0  0  0  0  0  0  0  0
   30.1052   38.0234   62.5496 C   0  0  0  0  0  0  0  0  0  0  0  0
   29.2307   38.9830   62.8393 N   0  0  0  0  0  0  0  0  0  0  0  0
   28.9675   39.2769   64.0973 C   0  0  0  0  0  0  0  0  0  0  0  0
   29.5984   38.5909   65.1238 C   0  0  0  0  0  0  0  0  0  0  0  0
   30.4697   37.6357   64.8517 N   0  0  0  0  0  0  0  0  0  0  0  0
   30.7444   37.3278   63.5901 C   0  0  0  0  0  0  0  0  0  0  0  0
   31.6558   36.3271   63.3009 N   0  0  0  0  0  0  0  0  0  0  0  0
   31.1382   35.0398   63.6637 C   0  0  0  0  0  0  0  0  0  0  0  0
   30.4027   35.0558   64.9795 C   0  0  0  0  0  0  0  0  0  0  0  0
   31.3122   35.3827   66.1498 C   0  0  0  0  0  0  0  0  0  0  0  0
   30.9816   34.5866   67.2664 C   0  0  0  0  0  0  0  0  0  0  0  0
   31.6586   34.6916   68.4547 C   0  0  0  0  0  0  0  0  0  0  0  0
   32.6934   35.6037   68.5579 C   0  0  0  0  0  0  0  0  0  0  0  0
   33.0099   36.3755   67.4689 C   0  0  0  0  0  0  0  0  0  0  0  0
   32.3098   36.2627   66.2495 C   0  0  0  0  0  0  0  0  0  0  0  0
   32.8714   37.2329   65.2261 C   0  0  0  0  0  0  0  0  0  0  0  0
   32.9469   36.6351   63.8444 C   0  0  0  0  0  0  0  0  0  0  0  0
   28.2570   40.0564   64.3296 H   0  0  0  0  0  0  0  0  0  0  0  0
   29.3768   38.8388   66.1513 H   0  0  0  0  0  0  0  0  0  0  0  0
   30.4557   34.7027   62.8835 H   0  0  0  0  0  0  0  0  0  0  0  0
   31.9663   34.3344   63.7323 H   0  0  0  0  0  0  0  0  0  0  0  0
   29.9541   34.0760   65.1445 H   0  0  0  0  0  0  0  0  0  0  0  0
   29.6088   35.8011   64.9309 H   0  0  0  0  0  0  0  0  0  0  0  0
   30.1736   33.8748   67.1832 H   0  0  0  0  0  0  0  0  0  0  0  0
   31.3880   34.0716   69.2966 H   0  0  0  0  0  0  0  0  0  0  0  0
   33.2435   35.7068   69.4815 H   0  0  0  0  0  0  0  0  0  0  0  0
   33.8174   37.0883   67.5471 H   0  0  0  0  0  0  0  0  0  0  0  0
   33.8727   37.5318   65.5361 H   0  0  0  0  0  0  0  0  0  0  0  0
   32.2357   38.1176   65.1932 H   0  0  0  0  0  0  0  0  0  0  0  0
   33.5370   35.7197   63.8892 H   0  0  0  0  0  0  0  0  0  0  0  0
   33.4476   37.3417   63.1826 H   0  0  0  0  0  0  0  0  0  0  0  0
  1  2  3  0  0  0  0
  2  3  1  0  0  0  0
  3  8  2  0  0  0  0
  3  4  1  0  0  0  0
  4  5  2  0  0  0  0
  5  6  1  0  0  0  0
  5 20  1  0  0  0  0
  6  7  2  0  0  0  0
  6 21  1  0  0  0  0
  7  8  1  0  0  0  0
  8  9  1  0  0  0  0
  9 19  1  0  0  0  0
  9 10  1  0  0  0  0
 10 11  1  0  0  0  0
 10 22  1  0  0  0  0
 10 23  1  0  0  0  0
 11 12  1  0  0  0  0
 11 24  1  0  0  0  0
 11 25  1  0  0  0  0
 12 17  2  0  0  0  0
 12 13  1  0  0  0  0
 13 14  2  0  0  0  0
 13 26  1  0  0  0  0
 14 15  1  0  0  0  0
 14 27  1  0  0  0  0
 15 16  2  0  0  0  0
 15 28  1  0  0  0  0
 16 17  1  0  0  0  0
 16 29  1  0  0  0  0
 17 18  1  0  0  0  0
 18 19  1  0  0  0  0
 18 30  1  0  0  0  0
 18 31  1  0  0  0  0
 19 32  1  0  0  0  0
 19 33  1  0  0  0  0
M  END
$$$$
