ZINC000000034967      none
 OpenBabel11202420153D

 37 39  0  0  0  0  0  0  0  0999 V2000
   33.0682   40.5460   58.8643 N   0  0  0  0  0  0  0  0  0  0  0  0
   32.8688   39.2242   59.0359 C   0  0  0  0  0  0  0  0  0  0  0  0
   32.4649   38.8032   60.1047 O   0  0  0  0  0  0  0  0  0  0  0  0
   33.1374   38.2960   57.9391 C   0  0  0  0  0  0  0  0  0  0  0  0
   33.5858   38.6462   56.7127 O   0  0  0  0  0  0  0  0  0  0  0  0
   33.7334   37.5629   55.9248 C   0  0  0  0  0  0  0  0  0  0  0  0
   34.1548   37.3955   54.6102 C   0  0  0  0  0  0  0  0  0  0  0  0
   34.2030   36.1328   54.0605 C   0  0  0  0  0  0  0  0  0  0  0  0
   33.8347   35.0209   54.8052 C   0  0  0  0  0  0  0  0  0  0  0  0
   33.4170   35.1622   56.0988 C   0  0  0  0  0  0  0  0  0  0  0  0
   33.3614   36.4327   56.6733 C   0  0  0  0  0  0  0  0  0  0  0  0
   32.9730   36.9393   57.9951 C   0  0  0  0  0  0  0  0  0  0  0  0
   32.5299   36.1934   59.0812 N   0  0  0  0  0  0  0  0  0  0  0  0
   31.3087   36.4232   59.6031 C   0  0  0  0  0  0  0  0  0  0  0  0
   30.5965   37.2806   59.1253 O   0  0  0  0  0  0  0  0  0  0  0  0
   30.8282   35.6147   60.7806 C   0  0  0  0  0  0  0  0  0  0  0  0
   32.2490   35.1171   61.7926 S   0  0  0  0  0  0  0  0  0  0  0  0
   31.5674   35.0257   63.4150 C   0  0  0  0  0  0  0  0  0  0  0  0
   32.0779   35.8248   64.4310 C   0  0  0  0  0  0  0  0  0  0  0  0
   31.5375   35.7547   65.6997 C   0  0  0  0  0  0  0  0  0  0  0  0
   30.4968   34.8826   65.9625 C   0  0  0  0  0  0  0  0  0  0  0  0
   29.9903   34.0813   64.9554 C   0  0  0  0  0  0  0  0  0  0  0  0
   30.5219   34.1503   63.6829 C   0  0  0  0  0  0  0  0  0  0  0  0
   33.3900   40.8814   58.0128 H   0  0  0  0  0  0  0  0  0  0  0  0
   32.8900   41.1620   59.5921 H   0  0  0  0  0  0  0  0  0  0  0  0
   34.4442   38.2534   54.0214 H   0  0  0  0  0  0  0  0  0  0  0  0
   34.5351   36.0066   53.0407 H   0  0  0  0  0  0  0  0  0  0  0  0
   33.8782   34.0381   54.3595 H   0  0  0  0  0  0  0  0  0  0  0  0
   33.1314   34.2940   56.6743 H   0  0  0  0  0  0  0  0  0  0  0  0
   33.0995   35.5076   59.4633 H   0  0  0  0  0  0  0  0  0  0  0  0
   30.1473   36.2175   61.3815 H   0  0  0  0  0  0  0  0  0  0  0  0
   30.3077   34.7263   60.4231 H   0  0  0  0  0  0  0  0  0  0  0  0
   32.8933   36.5029   64.2273 H   0  0  0  0  0  0  0  0  0  0  0  0
   31.9306   36.3785   66.4887 H   0  0  0  0  0  0  0  0  0  0  0  0
   30.0787   34.8268   66.9568 H   0  0  0  0  0  0  0  0  0  0  0  0
   29.1776   33.4012   65.1644 H   0  0  0  0  0  0  0  0  0  0  0  0
   30.1259   33.5242   62.8969 H   0  0  0  0  0  0  0  0  0  0  0  0
  1  2  1  0  0  0  0
  1 24  1  0  0  0  0
  1 25  1  0  0  0  0
  2  3  2  0  0  0  0
  2  4  1  0  0  0  0
  4 12  2  0  0  0  0
  4  5  1  0  0  0  0
  5  6  1  0  0  0  0
  6 11  2  0  0  0  0
  6  7  1  0  0  0  0
  7  8  2  0  0  0  0
  7 26  1  0  0  0  0
  8  9  1  0  0  0  0
  8 27  1  0  0  0  0
  9 10  2  0  0  0  0
  9 28  1  0  0  0  0
 10 11  1  0  0  0  0
 10 29  1  0  0  0  0
 11 12  1  0  0  0  0
 12 13  1  0  0  0  0
 13 14  1  0  0  0  0
 13 30  1  0  0  0  0
 14 15  2  0  0  0  0
 14 16  1  0  0  0  0
 16 17  1  0  0  0  0
 16 31  1  0  0  0  0
 16 32  1  0  0  0  0
 17 18  1  0  0  0  0
 18 23  2  0  0  0  0
 18 19  1  0  0  0  0
 19 20  2  0  0  0  0
 19 33  1  0  0  0  0
 20 21  1  0  0  0  0
 20 34  1  0  0  0  0
 21 22  2  0  0  0  0
 21 35  1  0  0  0  0
 22 23  1  0  0  0  0
 22 36  1  0  0  0  0
 23 37  1  0  0  0  0
M  END
$$$$
