ZINC000000039053      none
 OpenBabel11202420153D

 18 18  0  0  0  0  0  0  0  0999 V2000
   34.6378   38.5995   54.5629 C   0  0  0  0  0  0  0  0  0  0  0  0
   34.2645   39.3770   55.7023 O   0  0  0  0  0  0  0  0  0  0  0  0
   33.6888   38.7164   56.7361 C   0  0  0  0  0  0  0  0  0  0  0  0
   33.2973   39.4032   57.8821 C   0  0  0  0  0  0  0  0  0  0  0  0
   32.7131   38.6863   58.9142 C   0  0  0  0  0  0  0  0  0  0  0  0
   32.3178   39.3129   60.0440 F   0  0  0  0  0  0  0  0  0  0  0  0
   32.5461   37.3768   58.7790 N   0  0  0  0  0  0  0  0  0  0  0  0
   32.9293   36.7543   57.6765 C   0  0  0  0  0  0  0  0  0  0  0  0
   32.7419   35.4166   57.5749 O   0  0  0  0  0  0  0  0  0  0  0  0
   33.1727   34.7913   56.3644 C   0  0  0  0  0  0  0  0  0  0  0  0
   33.4905   37.4046   56.6702 N   0  0  0  0  0  0  0  0  0  0  0  0
   35.3588   37.8389   54.8623 H   0  0  0  0  0  0  0  0  0  0  0  0
   33.7532   38.1177   54.1463 H   0  0  0  0  0  0  0  0  0  0  0  0
   35.0858   39.2489   53.8109 H   0  0  0  0  0  0  0  0  0  0  0  0
   33.4452   40.4699   57.9648 H   0  0  0  0  0  0  0  0  0  0  0  0
   34.2438   34.9476   56.2359 H   0  0  0  0  0  0  0  0  0  0  0  0
   32.9648   33.7225   56.4136 H   0  0  0  0  0  0  0  0  0  0  0  0
   32.6383   35.2270   55.5202 H   0  0  0  0  0  0  0  0  0  0  0  0
  1  2  1  0  0  0  0
  1 12  1  0  0  0  0
  1 13  1  0  0  0  0
  1 14  1  0  0  0  0
  2  3  1  0  0  0  0
  3 11  2  0  0  0  0
  3  4  1  0  0  0  0
  4  5  2  0  0  0  0
  4 15  1  0  0  0  0
  5  6  1  0  0  0  0
  5  7  1  0  0  0  0
  7  8  2  0  0  0  0
  8  9  1  0  0  0  0
  8 11  1  0  0  0  0
  9 10  1  0  0  0  0
 10 16  1  0  0  0  0
 10 17  1  0  0  0  0
 10 18  1  0  0  0  0
M  END
$$$$
