ZINC000000033953      none
 OpenBabel11202420153D

 38 40  0  0  0  0  0  0  0  0999 V2000
   32.5978   33.5782   60.9526 C   0  0  0  0  0  0  0  0  0  0  0  0
   31.6237   34.3816   60.1299 C   0  0  0  0  0  0  0  0  0  0  0  0
   30.4455   34.0926   60.1316 O   0  0  0  0  0  0  0  0  0  0  0  0
   32.1003   35.5128   59.3269 C   0  0  0  0  0  0  0  0  0  0  0  0
   32.5124   35.3175   57.9960 C   0  0  0  0  0  0  0  0  0  0  0  0
   32.4588   33.9318   57.4059 C   0  0  0  0  0  0  0  0  0  0  0  0
   32.9312   36.3099   57.2552 N   0  0  0  0  0  0  0  0  0  0  0  0
   33.0083   37.5636   57.7215 C   0  0  0  0  0  0  0  0  0  0  0  0
   33.4789   38.6054   56.9052 C   0  0  0  0  0  0  0  0  0  0  0  0
   33.5501   39.8731   57.3984 C   0  0  0  0  0  0  0  0  0  0  0  0
   33.1625   40.1580   58.7053 C   0  0  0  0  0  0  0  0  0  0  0  0
   32.7008   39.1728   59.5261 C   0  0  0  0  0  0  0  0  0  0  0  0
   32.6200   37.8560   59.0516 C   0  0  0  0  0  0  0  0  0  0  0  0
   32.1506   36.8061   59.8783 C   0  0  0  0  0  0  0  0  0  0  0  0
   31.7281   37.0602   61.2712 C   0  0  0  0  0  0  0  0  0  0  0  0
   30.4010   37.3924   61.5523 C   0  0  0  0  0  0  0  0  0  0  0  0
   30.0121   37.6218   62.8557 C   0  0  0  0  0  0  0  0  0  0  0  0
   30.9362   37.5361   63.8821 C   0  0  0  0  0  0  0  0  0  0  0  0
   30.5054   37.7949   65.3027 C   0  0  0  0  0  0  0  0  0  0  0  0
   32.2543   37.2137   63.6100 C   0  0  0  0  0  0  0  0  0  0  0  0
   32.6554   36.9752   62.3120 C   0  0  0  0  0  0  0  0  0  0  0  0
   33.0181   34.2088   61.7362 H   0  0  0  0  0  0  0  0  0  0  0  0
   32.0800   32.7326   61.4055 H   0  0  0  0  0  0  0  0  0  0  0  0
   33.3997   33.2122   60.3115 H   0  0  0  0  0  0  0  0  0  0  0  0
   31.4556   33.7370   57.0266 H   0  0  0  0  0  0  0  0  0  0  0  0
   33.1769   33.8566   56.5894 H   0  0  0  0  0  0  0  0  0  0  0  0
   32.7050   33.1997   58.1750 H   0  0  0  0  0  0  0  0  0  0  0  0
   33.7833   38.4018   55.8892 H   0  0  0  0  0  0  0  0  0  0  0  0
   33.9131   40.6698   56.7660 H   0  0  0  0  0  0  0  0  0  0  0  0
   33.2281   41.1716   59.0724 H   0  0  0  0  0  0  0  0  0  0  0  0
   32.4032   39.4045   60.5381 H   0  0  0  0  0  0  0  0  0  0  0  0
   29.6799   37.4646   60.7515 H   0  0  0  0  0  0  0  0  0  0  0  0
   28.9850   37.8733   63.0750 H   0  0  0  0  0  0  0  0  0  0  0  0
   30.6218   38.8545   65.5305 H   0  0  0  0  0  0  0  0  0  0  0  0
   29.4601   37.5101   65.4230 H   0  0  0  0  0  0  0  0  0  0  0  0
   31.1225   37.2072   65.9823 H   0  0  0  0  0  0  0  0  0  0  0  0
   32.9703   37.1482   64.4159 H   0  0  0  0  0  0  0  0  0  0  0  0
   33.6842   36.7228   62.1012 H   0  0  0  0  0  0  0  0  0  0  0  0
  1  2  1  0  0  0  0
  1 22  1  0  0  0  0
  1 23  1  0  0  0  0
  1 24  1  0  0  0  0
  2  3  2  0  0  0  0
  2  4  1  0  0  0  0
  4 14  2  0  0  0  0
  4  5  1  0  0  0  0
  5  6  1  0  0  0  0
  5  7  2  0  0  0  0
  6 25  1  0  0  0  0
  6 26  1  0  0  0  0
  6 27  1  0  0  0  0
  7  8  1  0  0  0  0
  8 13  2  0  0  0  0
  8  9  1  0  0  0  0
  9 10  2  0  0  0  0
  9 28  1  0  0  0  0
 10 11  1  0  0  0  0
 10 29  1  0  0  0  0
 11 12  2  0  0  0  0
 11 30  1  0  0  0  0
 12 13  1  0  0  0  0
 12 31  1  0  0  0  0
 13 14  1  0  0  0  0
 14 15  1  0  0  0  0
 15 21  2  0  0  0  0
 15 16  1  0  0  0  0
 16 17  2  0  0  0  0
 16 32  1  0  0  0  0
 17 18  1  0  0  0  0
 17 33  1  0  0  0  0
 18 19  1  0  0  0  0
 18 20  2  0  0  0  0
 19 34  1  0  0  0  0
 19 35  1  0  0  0  0
 19 36  1  0  0  0  0
 20 21  1  0  0  0  0
 20 37  1  0  0  0  0
 21 38  1  0  0  0  0
M  END
$$$$
