ZINC000000056791      none
 OpenBabel11202420153D

 24 24  0  0  0  0  0  0  0  0999 V2000
   32.8759   39.9819   59.3316 N   0  0  0  0  0  0  0  0  0  0  0  0
   32.7266   38.6648   58.8910 C   0  0  0  0  0  0  0  0  0  0  0  0
   33.4395   38.2152   57.7865 C   0  0  0  0  0  0  0  0  0  0  0  0
   33.2899   36.9124   57.3539 C   0  0  0  0  0  0  0  0  0  0  0  0
   32.4360   36.0538   58.0222 C   0  0  0  0  0  0  0  0  0  0  0  0
   31.7209   36.4997   59.1183 C   0  0  0  0  0  0  0  0  0  0  0  0
   30.6288   35.4039   59.9617 S   0  0  0  0  0  0  0  0  0  0  0  0
   30.2559   34.4522   58.9746 O   0  0  0  0  0  0  0  0  0  0  0  0
   29.6629   36.2602   60.5558 O   0  0  0  0  0  0  0  0  0  0  0  0
   31.6609   34.6281   61.2359 C   0  0  0  0  0  0  0  0  0  0  0  0
   32.2970   33.3559   60.6722 C   0  0  0  0  0  0  0  0  0  0  0  0
   33.1052   33.6880   59.5416 O   0  0  0  0  0  0  0  0  0  0  0  0
   31.8657   37.8017   59.5564 C   0  0  0  0  0  0  0  0  0  0  0  0
   32.3779   40.2946   60.1030 H   0  0  0  0  0  0  0  0  0  0  0  0
   33.4775   40.5838   58.8661 H   0  0  0  0  0  0  0  0  0  0  0  0
   34.1095   38.8839   57.2667 H   0  0  0  0  0  0  0  0  0  0  0  0
   33.8437   36.5623   56.4954 H   0  0  0  0  0  0  0  0  0  0  0  0
   32.3245   35.0341   57.6847 H   0  0  0  0  0  0  0  0  0  0  0  0
   31.0444   34.3748   62.0983 H   0  0  0  0  0  0  0  0  0  0  0  0
   32.4445   35.3218   61.5407 H   0  0  0  0  0  0  0  0  0  0  0  0
   31.5134   32.6622   60.3674 H   0  0  0  0  0  0  0  0  0  0  0  0
   32.9172   32.8899   61.4379 H   0  0  0  0  0  0  0  0  0  0  0  0
   33.5406   32.9276   59.1323 H   0  0  0  0  0  0  0  0  0  0  0  0
   31.3099   38.1481   60.4152 H   0  0  0  0  0  0  0  0  0  0  0  0
  1  2  1  0  0  0  0
  1 14  1  0  0  0  0
  1 15  1  0  0  0  0
  2 13  2  0  0  0  0
  2  3  1  0  0  0  0
  3  4  2  0  0  0  0
  3 16  1  0  0  0  0
  4  5  1  0  0  0  0
  4 17  1  0  0  0  0
  5  6  2  0  0  0  0
  5 18  1  0  0  0  0
  6  7  1  0  0  0  0
  6 13  1  0  0  0  0
  7  8  2  0  0  0  0
  7  9  2  0  0  0  0
  7 10  1  0  0  0  0
 10 11  1  0  0  0  0
 10 19  1  0  0  0  0
 10 20  1  0  0  0  0
 11 12  1  0  0  0  0
 11 21  1  0  0  0  0
 11 22  1  0  0  0  0
 12 23  1  0  0  0  0
 13 24  1  0  0  0  0
M  END
$$$$
