ZINC000000030751      none
 OpenBabel11202420163D

 36 37  0  0  1  0  0  0  0  0999 V2000
   32.0495   36.7860   66.4346 C   0  0  0  0  0  0  0  0  0  0  0  0
   31.3473   36.9455   65.0846 C   0  0  2  0  0  0  0  0  0  0  0  0
   31.0974   35.9623   64.6858 H   0  0  0  0  0  0  0  0  0  0  0  0
   32.2767   37.6735   64.1070 C   0  0  0  0  0  0  0  0  0  0  0  0
   31.5166   37.9800   62.8848 N   0  0  0  0  0  0  0  0  0  0  0  0
   31.9997   37.6585   61.6684 C   0  0  0  0  0  0  0  0  0  0  0  0
   33.0760   37.1083   61.5693 O   0  0  0  0  0  0  0  0  0  0  0  0
   31.2025   37.9828   60.4313 C   0  0  0  0  0  0  0  0  0  0  0  0
   31.9588   37.5230   59.2115 C   0  0  0  0  0  0  0  0  0  0  0  0
   32.8405   38.3810   58.5811 C   0  0  0  0  0  0  0  0  0  0  0  0
   33.5386   37.9580   57.4658 C   0  0  0  0  0  0  0  0  0  0  0  0
   33.3464   36.6794   56.9735 C   0  0  0  0  0  0  0  0  0  0  0  0
   34.2171   36.1499   55.5681 Cl  0  0  0  0  0  0  0  0  0  0  0  0
   32.4595   35.8230   57.6015 C   0  0  0  0  0  0  0  0  0  0  0  0
   31.7662   36.2453   58.7202 C   0  0  0  0  0  0  0  0  0  0  0  0
   30.2162   38.6533   63.0297 C   0  0  0  0  0  0  0  0  0  0  0  0
   29.3846   37.8726   64.0602 C   0  0  1  0  0  0  0  0  0  0  0  0
   28.4725   38.4253   64.2851 H   0  0  0  0  0  0  0  0  0  0  0  0
   29.0229   36.4978   63.4945 C   0  0  0  0  0  0  0  0  0  0  0  0
   30.1518   37.7104   65.2557 O   0  0  0  0  0  0  0  0  0  0  0  0
   32.2973   37.7695   66.8336 H   0  0  0  0  0  0  0  0  0  0  0  0
   31.3880   36.2683   67.1293 H   0  0  0  0  0  0  0  0  0  0  0  0
   32.9632   36.2065   66.3027 H   0  0  0  0  0  0  0  0  0  0  0  0
   33.1246   37.0341   63.8612 H   0  0  0  0  0  0  0  0  0  0  0  0
   32.6331   38.5990   64.5594 H   0  0  0  0  0  0  0  0  0  0  0  0
   31.0416   39.0593   60.3746 H   0  0  0  0  0  0  0  0  0  0  0  0
   30.2399   37.4733   60.4754 H   0  0  0  0  0  0  0  0  0  0  0  0
   32.9872   39.3806   58.9628 H   0  0  0  0  0  0  0  0  0  0  0  0
   34.2308   38.6269   56.9760 H   0  0  0  0  0  0  0  0  0  0  0  0
   32.3093   34.8247   57.2179 H   0  0  0  0  0  0  0  0  0  0  0  0
   31.0737   35.5770   59.2102 H   0  0  0  0  0  0  0  0  0  0  0  0
   30.3686   39.6757   63.3755 H   0  0  0  0  0  0  0  0  0  0  0  0
   29.6989   38.6630   62.0704 H   0  0  0  0  0  0  0  0  0  0  0  0
   28.4374   35.9453   64.2293 H   0  0  0  0  0  0  0  0  0  0  0  0
   28.4381   36.6223   62.5831 H   0  0  0  0  0  0  0  0  0  0  0  0
   29.9355   35.9465   63.2681 H   0  0  0  0  0  0  0  0  0  0  0  0
  1  2  1  0  0  0  0
  1 21  1  0  0  0  0
  1 22  1  0  0  0  0
  1 23  1  0  0  0  0
  2  3  1  6  0  0  0
  2 20  1  0  0  0  0
  2  4  1  0  0  0  0
  4  5  1  0  0  0  0
  4 24  1  0  0  0  0
  4 25  1  0  0  0  0
  5  6  1  0  0  0  0
  5 16  1  0  0  0  0
  6  7  2  0  0  0  0
  6  8  1  0  0  0  0
  8  9  1  0  0  0  0
  8 26  1  0  0  0  0
  8 27  1  0  0  0  0
  9 15  2  0  0  0  0
  9 10  1  0  0  0  0
 10 11  2  0  0  0  0
 10 28  1  0  0  0  0
 11 12  1  0  0  0  0
 11 29  1  0  0  0  0
 12 13  1  0  0  0  0
 12 14  2  0  0  0  0
 14 15  1  0  0  0  0
 14 30  1  0  0  0  0
 15 31  1  0  0  0  0
 16 17  1  0  0  0  0
 16 32  1  0  0  0  0
 16 33  1  0  0  0  0
 17 18  1  1  0  0  0
 17 19  1  0  0  0  0
 17 20  1  0  0  0  0
 19 34  1  0  0  0  0
 19 35  1  0  0  0  0
 19 36  1  0  0  0  0
M  END
$$$$
