ZINC000000000764      none
 OpenBabel11202420153D

 27 28  0  0  1  0  0  0  0  0999 V2000
   32.7194   36.9753   65.4381 C   0  0  0  0  0  0  0  0  0  0  0  0
   31.4229   36.5118   64.9372 N   0  0  0  0  0  0  0  0  0  0  0  0
   30.6186   35.5833   65.7354 C   0  0  0  0  0  0  0  0  0  0  0  0
   30.9662   36.9435   63.7313 C   0  0  0  0  0  0  0  0  0  0  0  0
   29.8166   36.5741   63.2146 N   0  0  0  0  0  0  0  0  0  0  0  0
   29.5989   37.1348   62.0252 C   0  0  0  0  0  0  0  0  0  0  0  0
   28.6288   36.9855   61.3087 O   0  0  0  0  0  0  0  0  0  0  0  0
   30.8155   37.9984   61.7540 C   0  0  2  0  0  0  0  0  0  0  0  0
   30.5327   39.0467   61.6585 H   0  0  0  0  0  0  0  0  0  0  0  0
   31.5357   37.5289   60.5162 C   0  0  0  0  0  0  0  0  0  0  0  0
   32.2336   38.4332   59.7377 C   0  0  0  0  0  0  0  0  0  0  0  0
   32.8942   38.0025   58.6024 C   0  0  0  0  0  0  0  0  0  0  0  0
   32.8577   36.6674   58.2460 C   0  0  0  0  0  0  0  0  0  0  0  0
   32.1557   35.7639   59.0218 C   0  0  0  0  0  0  0  0  0  0  0  0
   31.4988   36.1938   60.1595 C   0  0  0  0  0  0  0  0  0  0  0  0
   31.6425   37.7933   62.9407 O   0  0  0  0  0  0  0  0  0  0  0  0
   32.5791   37.8851   66.0218 H   0  0  0  0  0  0  0  0  0  0  0  0
   33.1622   36.2039   66.0683 H   0  0  0  0  0  0  0  0  0  0  0  0
   33.3812   37.1815   64.5969 H   0  0  0  0  0  0  0  0  0  0  0  0
   30.8809   34.5581   65.4741 H   0  0  0  0  0  0  0  0  0  0  0  0
   30.8156   35.7500   66.7945 H   0  0  0  0  0  0  0  0  0  0  0  0
   29.5611   35.7511   65.5317 H   0  0  0  0  0  0  0  0  0  0  0  0
   32.2624   39.4763   60.0164 H   0  0  0  0  0  0  0  0  0  0  0  0
   33.4392   38.7091   57.9940 H   0  0  0  0  0  0  0  0  0  0  0  0
   33.3739   36.3310   57.3590 H   0  0  0  0  0  0  0  0  0  0  0  0
   32.1236   34.7216   58.7410 H   0  0  0  0  0  0  0  0  0  0  0  0
   30.9538   35.4873   60.7679 H   0  0  0  0  0  0  0  0  0  0  0  0
  1  2  1  0  0  0  0
  1 17  1  0  0  0  0
  1 18  1  0  0  0  0
  1 19  1  0  0  0  0
  2  3  1  0  0  0  0
  2  4  1  0  0  0  0
  3 20  1  0  0  0  0
  3 21  1  0  0  0  0
  3 22  1  0  0  0  0
  4 16  1  0  0  0  0
  4  5  2  0  0  0  0
  5  6  1  0  0  0  0
  6  7  2  0  0  0  0
  6  8  1  0  0  0  0
  8  9  1  6  0  0  0
  8 10  1  0  0  0  0
  8 16  1  0  0  0  0
 10 15  2  0  0  0  0
 10 11  1  0  0  0  0
 11 12  2  0  0  0  0
 11 23  1  0  0  0  0
 12 13  1  0  0  0  0
 12 24  1  0  0  0  0
 13 14  2  0  0  0  0
 13 25  1  0  0  0  0
 14 15  1  0  0  0  0
 14 26  1  0  0  0  0
 15 27  1  0  0  0  0
M  END
$$$$
