ZINC000000036381      none
 OpenBabel11202420153D

 34 35  0  0  0  0  0  0  0  0999 V2000
   31.7819   35.9454   60.5487 C   0  0  0  0  0  0  0  0  0  0  0  0
   32.1497   35.5961   59.2127 O   0  0  0  0  0  0  0  0  0  0  0  0
   32.6321   36.5929   58.4249 C   0  0  0  0  0  0  0  0  0  0  0  0
   32.7437   37.8821   58.9257 C   0  0  0  0  0  0  0  0  0  0  0  0
   33.2392   38.8922   58.1246 C   0  0  0  0  0  0  0  0  0  0  0  0
   33.3661   40.2916   58.6696 C   0  0  0  0  0  0  0  0  0  0  0  0
   33.6140   38.6219   56.8212 C   0  0  0  0  0  0  0  0  0  0  0  0
   33.4984   37.3395   56.3182 C   0  0  0  0  0  0  0  0  0  0  0  0
   33.0084   36.3243   57.1171 C   0  0  0  0  0  0  0  0  0  0  0  0
   32.8619   34.6898   56.4754 S   0  0  0  0  0  0  0  0  0  0  0  0
   32.2582   33.9097   57.4983 O   0  0  0  0  0  0  0  0  0  0  0  0
   32.3138   34.8186   55.1707 O   0  0  0  0  0  0  0  0  0  0  0  0
   34.3970   34.1000   56.2817 N   0  0  0  0  0  0  0  0  0  0  0  0
   35.1042   34.3004   55.0144 C   0  0  0  0  0  0  0  0  0  0  0  0
   34.8149   33.1462   54.0897 C   0  0  0  0  0  0  0  0  0  0  0  0
   33.8034   33.0811   53.2054 C   0  0  0  0  0  0  0  0  0  0  0  0
   33.9088   31.8307   52.5538 C   0  0  0  0  0  0  0  0  0  0  0  0
   34.9784   31.2066   53.0789 C   0  0  0  0  0  0  0  0  0  0  0  0
   35.5267   32.0104   54.0046 O   0  0  0  0  0  0  0  0  0  0  0  0
   32.6521   36.3389   61.0741 H   0  0  0  0  0  0  0  0  0  0  0  0
   31.4138   35.0603   61.0675 H   0  0  0  0  0  0  0  0  0  0  0  0
   30.9991   36.7037   60.5235 H   0  0  0  0  0  0  0  0  0  0  0  0
   32.4469   38.0947   59.9420 H   0  0  0  0  0  0  0  0  0  0  0  0
   32.4424   40.8393   58.4829 H   0  0  0  0  0  0  0  0  0  0  0  0
   33.5521   40.2480   59.7427 H   0  0  0  0  0  0  0  0  0  0  0  0
   34.1955   40.7994   58.1773 H   0  0  0  0  0  0  0  0  0  0  0  0
   33.9974   39.4140   56.1952 H   0  0  0  0  0  0  0  0  0  0  0  0
   33.7912   37.1309   55.2997 H   0  0  0  0  0  0  0  0  0  0  0  0
   34.8281   33.6217   57.0073 H   0  0  0  0  0  0  0  0  0  0  0  0
   34.7673   35.2287   54.5532 H   0  0  0  0  0  0  0  0  0  0  0  0
   36.1765   34.3559   55.2016 H   0  0  0  0  0  0  0  0  0  0  0  0
   33.0548   33.8387   53.0269 H   0  0  0  0  0  0  0  0  0  0  0  0
   33.2556   31.4497   51.7827 H   0  0  0  0  0  0  0  0  0  0  0  0
   35.3382   30.2273   52.7998 H   0  0  0  0  0  0  0  0  0  0  0  0
  1  2  1  0  0  0  0
  1 20  1  0  0  0  0
  1 21  1  0  0  0  0
  1 22  1  0  0  0  0
  2  3  1  0  0  0  0
  3  9  2  0  0  0  0
  3  4  1  0  0  0  0
  4  5  2  0  0  0  0
  4 23  1  0  0  0  0
  5  6  1  0  0  0  0
  5  7  1  0  0  0  0
  6 24  1  0  0  0  0
  6 25  1  0  0  0  0
  6 26  1  0  0  0  0
  7  8  2  0  0  0  0
  7 27  1  0  0  0  0
  8  9  1  0  0  0  0
  8 28  1  0  0  0  0
  9 10  1  0  0  0  0
 10 11  2  0  0  0  0
 10 12  2  0  0  0  0
 10 13  1  0  0  0  0
 13 14  1  0  0  0  0
 13 29  1  0  0  0  0
 14 15  1  0  0  0  0
 14 30  1  0  0  0  0
 14 31  1  0  0  0  0
 15 19  1  0  0  0  0
 15 16  2  0  0  0  0
 16 17  1  0  0  0  0
 16 32  1  0  0  0  0
 17 18  2  0  0  0  0
 17 33  1  0  0  0  0
 18 19  1  0  0  0  0
 18 34  1  0  0  0  0
M  END
$$$$
