ZINC000000043498      none
 OpenBabel11202420153D

 38 40  0  0  0  0  0  0  0  0999 V2000
   34.1905   40.0088   56.1132 C   0  0  0  0  0  0  0  0  0  0  0  0
   33.6238   38.9407   57.0128 C   0  0  0  0  0  0  0  0  0  0  0  0
   33.2514   39.2550   58.3071 C   0  0  0  0  0  0  0  0  0  0  0  0
   32.7264   38.2800   59.1321 C   0  0  0  0  0  0  0  0  0  0  0  0
   32.5832   36.9799   58.6645 C   0  0  0  0  0  0  0  0  0  0  0  0
   32.0568   35.9889   59.4991 N   0  0  0  0  0  0  0  0  0  0  0  0
   32.2409   36.0629   60.8322 C   0  0  0  0  0  0  0  0  0  0  0  0
   32.8648   36.9915   61.3093 O   0  0  0  0  0  0  0  0  0  0  0  0
   31.6864   35.0189   61.7114 C   0  0  0  0  0  0  0  0  0  0  0  0
   32.0771   33.6786   61.5552 C   0  0  0  0  0  0  0  0  0  0  0  0
   31.6046   32.7324   62.3250 N   0  0  0  0  0  0  0  0  0  0  0  0
   30.7203   32.9864   63.2993 C   0  0  0  0  0  0  0  0  0  0  0  0
   30.2294   31.9513   64.1119 C   0  0  0  0  0  0  0  0  0  0  0  0
   29.3313   32.2314   65.0969 C   0  0  0  0  0  0  0  0  0  0  0  0
   28.8875   33.5330   65.3149 C   0  0  0  0  0  0  0  0  0  0  0  0
   29.3419   34.5625   64.5464 C   0  0  0  0  0  0  0  0  0  0  0  0
   30.2676   34.3086   63.5237 C   0  0  0  0  0  0  0  0  0  0  0  0
   30.7606   35.3516   62.7070 C   0  0  0  0  0  0  0  0  0  0  0  0
   30.3555   36.6296   62.8854 O   0  0  0  0  0  0  0  0  0  0  0  0
   32.9586   36.6676   57.3644 C   0  0  0  0  0  0  0  0  0  0  0  0
   32.7992   35.2599   56.8508 C   0  0  0  0  0  0  0  0  0  0  0  0
   33.4777   37.6488   56.5424 C   0  0  0  0  0  0  0  0  0  0  0  0
   33.3800   40.4927   55.5684 H   0  0  0  0  0  0  0  0  0  0  0  0
   34.7167   40.7495   56.7153 H   0  0  0  0  0  0  0  0  0  0  0  0
   34.8850   39.5565   55.4051 H   0  0  0  0  0  0  0  0  0  0  0  0
   33.3672   40.2650   58.6716 H   0  0  0  0  0  0  0  0  0  0  0  0
   32.4316   38.5270   60.1414 H   0  0  0  0  0  0  0  0  0  0  0  0
   31.5592   35.2482   59.1186 H   0  0  0  0  0  0  0  0  0  0  0  0
   32.7885   33.4237   60.7837 H   0  0  0  0  0  0  0  0  0  0  0  0
   30.5634   30.9361   63.9562 H   0  0  0  0  0  0  0  0  0  0  0  0
   28.9575   31.4313   65.7185 H   0  0  0  0  0  0  0  0  0  0  0  0
   28.1744   33.7288   66.1020 H   0  0  0  0  0  0  0  0  0  0  0  0
   28.9913   35.5684   64.7240 H   0  0  0  0  0  0  0  0  0  0  0  0
   30.7605   37.2595   62.2736 H   0  0  0  0  0  0  0  0  0  0  0  0
   31.8136   35.1472   56.3990 H   0  0  0  0  0  0  0  0  0  0  0  0
   33.5666   35.0565   56.1039 H   0  0  0  0  0  0  0  0  0  0  0  0
   32.9020   34.5574   57.6780 H   0  0  0  0  0  0  0  0  0  0  0  0
   33.7700   37.4065   55.5314 H   0  0  0  0  0  0  0  0  0  0  0  0
  1  2  1  0  0  0  0
  1 23  1  0  0  0  0
  1 24  1  0  0  0  0
  1 25  1  0  0  0  0
  2 22  2  0  0  0  0
  2  3  1  0  0  0  0
  3  4  2  0  0  0  0
  3 26  1  0  0  0  0
  4  5  1  0  0  0  0
  4 27  1  0  0  0  0
  5  6  1  0  0  0  0
  5 20  2  0  0  0  0
  6  7  1  0  0  0  0
  6 28  1  0  0  0  0
  7  8  2  0  0  0  0
  7  9  1  0  0  0  0
  9 18  2  0  0  0  0
  9 10  1  0  0  0  0
 10 11  2  0  0  0  0
 10 29  1  0  0  0  0
 11 12  1  0  0  0  0
 12 17  2  0  0  0  0
 12 13  1  0  0  0  0
 13 14  2  0  0  0  0
 13 30  1  0  0  0  0
 14 15  1  0  0  0  0
 14 31  1  0  0  0  0
 15 16  2  0  0  0  0
 15 32  1  0  0  0  0
 16 17  1  0  0  0  0
 16 33  1  0  0  0  0
 17 18  1  0  0  0  0
 18 19  1  0  0  0  0
 19 34  1  0  0  0  0
 20 21  1  0  0  0  0
 20 22  1  0  0  0  0
 21 35  1  0  0  0  0
 21 36  1  0  0  0  0
 21 37  1  0  0  0  0
 22 38  1  0  0  0  0
M  END
$$$$
