ZINC000000006769      none
 OpenBabel11202420153D

 32 33  0  0  0  0  0  0  0  0999 V2000
   30.7106   35.2108   67.4652 C   0  0  0  0  0  0  0  0  0  0  0  0
   30.7065   36.6757   67.4619 N   0  0  0  0  0  0  0  0  0  0  0  0
   29.4974   37.3714   67.5448 C   0  0  0  0  0  0  0  0  0  0  0  0
   28.4202   36.8161   68.2240 C   0  0  0  0  0  0  0  0  0  0  0  0
   27.2264   37.5055   68.3040 C   0  0  0  0  0  0  0  0  0  0  0  0
   27.1026   38.7487   67.7085 C   0  0  0  0  0  0  0  0  0  0  0  0
   25.6005   39.6130   67.8115 Cl  0  0  0  0  0  0  0  0  0  0  0  0
   28.1754   39.3065   67.0358 C   0  0  0  0  0  0  0  0  0  0  0  0
   29.3701   38.6187   66.9478 C   0  0  0  0  0  0  0  0  0  0  0  0
   30.7336   39.3268   66.0852 S   0  0  0  0  0  0  0  0  0  0  0  0
   31.8815   39.0961   66.8905 O   0  0  0  0  0  0  0  0  0  0  0  0
   30.3196   40.6228   65.6750 O   0  0  0  0  0  0  0  0  0  0  0  0
   30.9628   38.3880   64.6118 C   0  0  0  0  0  0  0  0  0  0  0  0
   32.0711   37.5724   64.4772 C   0  0  0  0  0  0  0  0  0  0  0  0
   32.2512   36.8364   63.3213 C   0  0  0  0  0  0  0  0  0  0  0  0
   31.3234   36.9160   62.2994 C   0  0  0  0  0  0  0  0  0  0  0  0
   30.2155   37.7314   62.4340 C   0  0  0  0  0  0  0  0  0  0  0  0
   30.0354   38.4677   63.5902 C   0  0  0  0  0  0  0  0  0  0  0  0
   28.8524   39.3460   63.7315 N   0  0  0  0  0  0  0  0  0  0  0  0
   28.6962   39.9986   64.7480 O   0  0  0  0  0  0  0  0  0  0  0  0
   28.0351   39.4163   62.8311 O   0  0  0  0  0  0  0  0  0  0  0  0
   31.7366   34.8501   67.3943 H   0  0  0  0  0  0  0  0  0  0  0  0
   30.2610   34.8483   68.3898 H   0  0  0  0  0  0  0  0  0  0  0  0
   30.1368   34.8439   66.6142 H   0  0  0  0  0  0  0  0  0  0  0  0
   31.5431   37.1629   67.4021 H   0  0  0  0  0  0  0  0  0  0  0  0
   28.5167   35.8464   68.6895 H   0  0  0  0  0  0  0  0  0  0  0  0
   26.3887   37.0742   68.8319 H   0  0  0  0  0  0  0  0  0  0  0  0
   28.0773   40.2785   66.5755 H   0  0  0  0  0  0  0  0  0  0  0  0
   32.7955   37.5096   65.2758 H   0  0  0  0  0  0  0  0  0  0  0  0
   33.1165   36.1986   63.2165 H   0  0  0  0  0  0  0  0  0  0  0  0
   31.4641   36.3409   61.3963 H   0  0  0  0  0  0  0  0  0  0  0  0
   29.4908   37.7937   61.6357 H   0  0  0  0  0  0  0  0  0  0  0  0
  1  2  1  0  0  0  0
  1 22  1  0  0  0  0
  1 23  1  0  0  0  0
  1 24  1  0  0  0  0
  2  3  1  0  0  0  0
  2 25  1  0  0  0  0
  3  9  2  0  0  0  0
  3  4  1  0  0  0  0
  4  5  2  0  0  0  0
  4 26  1  0  0  0  0
  5  6  1  0  0  0  0
  5 27  1  0  0  0  0
  6  7  1  0  0  0  0
  6  8  2  0  0  0  0
  8  9  1  0  0  0  0
  8 28  1  0  0  0  0
  9 10  1  0  0  0  0
 10 11  2  0  0  0  0
 10 12  2  0  0  0  0
 10 13  1  0  0  0  0
 13 18  2  0  0  0  0
 13 14  1  0  0  0  0
 14 15  2  0  0  0  0
 14 29  1  0  0  0  0
 15 16  1  0  0  0  0
 15 30  1  0  0  0  0
 16 17  2  0  0  0  0
 16 31  1  0  0  0  0
 17 18  1  0  0  0  0
 17 32  1  0  0  0  0
 18 19  1  0  0  0  0
 19 20  2  0  0  0  0
 19 21  2  0  0  0  0
M  END
$$$$
