ZINC000000024149      none
 OpenBabel11202420153D

 34 35  0  0  0  0  0  0  0  0999 V2000
   35.1977   31.6374   53.6404 C   0  0  0  0  0  0  0  0  0  0  0  0
   35.4854   32.9380   54.1582 O   0  0  0  0  0  0  0  0  0  0  0  0
   34.5144   33.8805   54.0332 C   0  0  0  0  0  0  0  0  0  0  0  0
   33.3089   33.5593   53.4247 C   0  0  0  0  0  0  0  0  0  0  0  0
   32.3192   34.5155   53.3024 C   0  0  0  0  0  0  0  0  0  0  0  0
   32.5304   35.7965   53.7758 C   0  0  0  0  0  0  0  0  0  0  0  0
   33.7339   36.1226   54.3850 C   0  0  0  0  0  0  0  0  0  0  0  0
   33.9389   37.3808   54.8554 O   0  0  0  0  0  0  0  0  0  0  0  0
   33.5844   37.6474   56.1405 C   0  0  0  0  0  0  0  0  0  0  0  0
   33.7810   38.9168   56.6650 C   0  0  0  0  0  0  0  0  0  0  0  0
   33.4168   39.1895   57.9686 C   0  0  0  0  0  0  0  0  0  0  0  0
   32.8635   38.1901   58.7581 C   0  0  0  0  0  0  0  0  0  0  0  0
   32.4991   38.4646   60.0827 N   0  0  0  0  0  0  0  0  0  0  0  0
   31.9621   37.4944   60.8487 C   0  0  0  0  0  0  0  0  0  0  0  0
   31.5702   37.7897   62.2736 C   0  0  0  0  0  0  0  0  0  0  0  0
   31.7943   36.3837   60.3912 O   0  0  0  0  0  0  0  0  0  0  0  0
   32.6720   36.9185   58.2343 C   0  0  0  0  0  0  0  0  0  0  0  0
   33.0316   36.6484   56.9289 C   0  0  0  0  0  0  0  0  0  0  0  0
   34.7269   35.1632   54.5137 C   0  0  0  0  0  0  0  0  0  0  0  0
   36.0541   30.9834   53.8045 H   0  0  0  0  0  0  0  0  0  0  0  0
   34.3251   31.2284   54.1498 H   0  0  0  0  0  0  0  0  0  0  0  0
   34.9944   31.7086   52.5718 H   0  0  0  0  0  0  0  0  0  0  0  0
   33.1429   32.5599   53.0506 H   0  0  0  0  0  0  0  0  0  0  0  0
   31.3802   34.2623   52.8327 H   0  0  0  0  0  0  0  0  0  0  0  0
   31.7565   36.5430   53.6756 H   0  0  0  0  0  0  0  0  0  0  0  0
   34.2155   39.6928   56.0521 H   0  0  0  0  0  0  0  0  0  0  0  0
   33.5660   40.1788   58.3754 H   0  0  0  0  0  0  0  0  0  0  0  0
   32.6334   39.3528   60.4485 H   0  0  0  0  0  0  0  0  0  0  0  0
   30.8211   38.5813   62.2878 H   0  0  0  0  0  0  0  0  0  0  0  0
   31.1572   36.8904   62.7305 H   0  0  0  0  0  0  0  0  0  0  0  0
   32.4489   38.1107   62.8330 H   0  0  0  0  0  0  0  0  0  0  0  0
   32.2420   36.1408   58.8480 H   0  0  0  0  0  0  0  0  0  0  0  0
   32.8830   35.6593   56.5215 H   0  0  0  0  0  0  0  0  0  0  0  0
   35.6644   35.4150   54.9871 H   0  0  0  0  0  0  0  0  0  0  0  0
  1  2  1  0  0  0  0
  1 20  1  0  0  0  0
  1 21  1  0  0  0  0
  1 22  1  0  0  0  0
  2  3  1  0  0  0  0
  3 19  2  0  0  0  0
  3  4  1  0  0  0  0
  4  5  2  0  0  0  0
  4 23  1  0  0  0  0
  5  6  1  0  0  0  0
  5 24  1  0  0  0  0
  6  7  2  0  0  0  0
  6 25  1  0  0  0  0
  7  8  1  0  0  0  0
  7 19  1  0  0  0  0
  8  9  1  0  0  0  0
  9 18  2  0  0  0  0
  9 10  1  0  0  0  0
 10 11  2  0  0  0  0
 10 26  1  0  0  0  0
 11 12  1  0  0  0  0
 11 27  1  0  0  0  0
 12 13  1  0  0  0  0
 12 17  2  0  0  0  0
 13 14  1  0  0  0  0
 13 28  1  0  0  0  0
 14 15  1  0  0  0  0
 14 16  2  0  0  0  0
 15 29  1  0  0  0  0
 15 30  1  0  0  0  0
 15 31  1  0  0  0  0
 17 18  1  0  0  0  0
 17 32  1  0  0  0  0
 18 33  1  0  0  0  0
 19 34  1  0  0  0  0
M  END
$$$$
