ZINC000000013635      none
 OpenBabel11202420153D

 47 49  0  0  1  0  0  0  0  0999 V2000
   31.0728   37.8831   65.2175 O   0  0  0  0  0  0  0  0  0  0  0  0
   30.4942   39.1060   64.7576 C   0  0  1  0  0  0  0  0  0  0  0  0
   31.1990   39.6175   64.1020 H   0  0  0  0  0  0  0  0  0  0  0  0
   29.2079   38.8034   63.9863 C   0  0  0  0  0  0  0  0  0  0  0  0
   29.5582   38.3575   62.5653 C   0  0  0  0  0  0  0  0  0  0  0  0
   30.4253   37.0984   62.6250 C   0  0  0  0  0  0  0  0  0  0  0  0
   30.7616   36.6702   61.2606 N   0  0  0  0  0  0  0  0  0  0  0  0
   31.8083   37.5252   60.6833 C   0  0  0  0  0  0  0  0  0  0  0  0
   32.0727   37.0975   59.2378 C   0  0  0  0  0  0  0  0  0  0  0  0
   32.4778   35.6852   59.2139 N   0  0  0  0  0  0  0  0  0  0  0  0
   32.7950   35.2813   57.9271 C   0  0  0  0  0  0  0  0  0  0  0  0
   32.6006   34.0178   57.5803 N   0  0  0  0  0  0  0  0  0  0  0  0
   32.8976   33.5971   56.3617 C   0  0  0  0  0  0  0  0  0  0  0  0
   33.4186   34.4980   55.4434 C   0  0  0  0  0  0  0  0  0  0  0  0
   33.7335   34.1027   54.1905 F   0  0  0  0  0  0  0  0  0  0  0  0
   33.6091   35.8139   55.8412 C   0  0  0  0  0  0  0  0  0  0  0  0
   33.2903   36.1669   57.0757 N   0  0  0  0  0  0  0  0  0  0  0  0
   31.4312   34.8302   59.7912 C   0  0  0  0  0  0  0  0  0  0  0  0
   31.1667   35.2579   61.2367 C   0  0  0  0  0  0  0  0  0  0  0  0
   30.1765   39.9868   65.9383 C   0  0  0  0  0  0  0  0  0  0  0  0
   28.9379   39.9052   66.5474 C   0  0  0  0  0  0  0  0  0  0  0  0
   28.6471   40.7090   67.6334 C   0  0  0  0  0  0  0  0  0  0  0  0
   29.5929   41.6037   68.1048 C   0  0  0  0  0  0  0  0  0  0  0  0
   29.3080   42.3932   69.1633 F   0  0  0  0  0  0  0  0  0  0  0  0
   30.8310   41.6882   67.4907 C   0  0  0  0  0  0  0  0  0  0  0  0
   31.1215   40.8797   66.4082 C   0  0  0  0  0  0  0  0  0  0  0  0
   31.8934   37.9991   65.7159 H   0  0  0  0  0  0  0  0  0  0  0  0
   28.5902   39.7004   63.9438 H   0  0  0  0  0  0  0  0  0  0  0  0
   28.6597   38.0083   64.4919 H   0  0  0  0  0  0  0  0  0  0  0  0
   30.1064   39.1525   62.0598 H   0  0  0  0  0  0  0  0  0  0  0  0
   28.6419   38.1419   62.0158 H   0  0  0  0  0  0  0  0  0  0  0  0
   29.8770   36.3033   63.1304 H   0  0  0  0  0  0  0  0  0  0  0  0
   31.3416   37.3139   63.1745 H   0  0  0  0  0  0  0  0  0  0  0  0
   32.7237   37.4230   61.2661 H   0  0  0  0  0  0  0  0  0  0  0  0
   31.4797   38.5643   60.7008 H   0  0  0  0  0  0  0  0  0  0  0  0
   32.8691   37.7114   58.8169 H   0  0  0  0  0  0  0  0  0  0  0  0
   31.1648   37.2256   58.6485 H   0  0  0  0  0  0  0  0  0  0  0  0
   32.7366   32.5658   56.0848 H   0  0  0  0  0  0  0  0  0  0  0  0
   34.0121   36.5407   55.1516 H   0  0  0  0  0  0  0  0  0  0  0  0
   30.5158   34.9324   59.2084 H   0  0  0  0  0  0  0  0  0  0  0  0
   31.7598   33.7910   59.7737 H   0  0  0  0  0  0  0  0  0  0  0  0
   32.0749   35.1299   61.8258 H   0  0  0  0  0  0  0  0  0  0  0  0
   30.3706   34.6440   61.6579 H   0  0  0  0  0  0  0  0  0  0  0  0
   28.1991   39.2102   66.1770 H   0  0  0  0  0  0  0  0  0  0  0  0
   27.6811   40.6422   68.1115 H   0  0  0  0  0  0  0  0  0  0  0  0
   31.5694   42.3860   67.8573 H   0  0  0  0  0  0  0  0  0  0  0  0
   32.0873   40.9452   65.9293 H   0  0  0  0  0  0  0  0  0  0  0  0
  1  2  1  0  0  0  0
  1 27  1  0  0  0  0
  2  3  1  6  0  0  0
  2  4  1  0  0  0  0
  2 20  1  0  0  0  0
  4  5  1  0  0  0  0
  4 28  1  0  0  0  0
  4 29  1  0  0  0  0
  5  6  1  0  0  0  0
  5 30  1  0  0  0  0
  5 31  1  0  0  0  0
  6  7  1  0  0  0  0
  6 32  1  0  0  0  0
  6 33  1  0  0  0  0
  7 19  1  0  0  0  0
  7  8  1  0  0  0  0
  8  9  1  0  0  0  0
  8 34  1  0  0  0  0
  8 35  1  0  0  0  0
  9 10  1  0  0  0  0
  9 36  1  0  0  0  0
  9 37  1  0  0  0  0
 10 11  1  0  0  0  0
 10 18  1  0  0  0  0
 11 17  2  0  0  0  0
 11 12  1  0  0  0  0
 12 13  2  0  0  0  0
 13 14  1  0  0  0  0
 13 38  1  0  0  0  0
 14 15  1  0  0  0  0
 14 16  2  0  0  0  0
 16 17  1  0  0  0  0
 16 39  1  0  0  0  0
 18 19  1  0  0  0  0
 18 40  1  0  0  0  0
 18 41  1  0  0  0  0
 19 42  1  0  0  0  0
 19 43  1  0  0  0  0
 20 26  2  0  0  0  0
 20 21  1  0  0  0  0
 21 22  2  0  0  0  0
 21 44  1  0  0  0  0
 22 23  1  0  0  0  0
 22 45  1  0  0  0  0
 23 24  1  0  0  0  0
 23 25  2  0  0  0  0
 25 26  1  0  0  0  0
 25 46  1  0  0  0  0
 26 47  1  0  0  0  0
M  END
$$$$
