ZINC000000051662      none
 OpenBabel11202420153D

 38 39  0  0  0  0  0  0  0  0999 V2000
   35.7942   40.5900   51.3067 C   0  0  0  0  0  0  0  0  0  0  0  0
   35.3685   39.2942   51.8045 O   0  0  0  0  0  0  0  0  0  0  0  0
   34.9941   39.2289   53.0919 C   0  0  0  0  0  0  0  0  0  0  0  0
   35.0212   40.2216   53.7800 O   0  0  0  0  0  0  0  0  0  0  0  0
   34.5399   37.9173   53.6789 C   0  0  0  0  0  0  0  0  0  0  0  0
   34.1882   38.1088   55.0881 N   0  0  0  0  0  0  0  0  0  0  0  0
   33.7420   37.0405   55.8392 C   0  0  0  0  0  0  0  0  0  0  0  0
   33.6308   35.8361   55.2840 N   0  0  0  0  0  0  0  0  0  0  0  0
   33.2036   34.8116   56.0035 C   0  0  0  0  0  0  0  0  0  0  0  0
   33.0600   33.2420   55.2757 Cl  0  0  0  0  0  0  0  0  0  0  0  0
   32.8855   34.9804   57.2766 N   0  0  0  0  0  0  0  0  0  0  0  0
   32.9946   36.1821   57.8374 C   0  0  0  0  0  0  0  0  0  0  0  0
   32.6680   36.3562   59.1669 N   0  0  0  0  0  0  0  0  0  0  0  0
   32.2664   37.7434   59.4328 C   0  0  0  0  0  0  0  0  0  0  0  0
   32.0529   37.9348   60.9361 C   0  0  0  0  0  0  0  0  0  0  0  0
   30.9683   36.9680   61.4198 C   0  0  0  0  0  0  0  0  0  0  0  0
   30.7931   37.1119   62.9330 C   0  0  0  0  0  0  0  0  0  0  0  0
   31.3889   35.5338   61.0874 C   0  0  0  0  0  0  0  0  0  0  0  0
   31.6216   35.4120   59.5798 C   0  0  0  0  0  0  0  0  0  0  0  0
   33.4234   37.2133   57.1173 N   0  0  0  0  0  0  0  0  0  0  0  0
   34.9784   41.3053   51.4111 H   0  0  0  0  0  0  0  0  0  0  0  0
   36.6551   40.9345   51.8799 H   0  0  0  0  0  0  0  0  0  0  0  0
   36.0689   40.5030   50.2554 H   0  0  0  0  0  0  0  0  0  0  0  0
   35.3449   37.1864   53.6014 H   0  0  0  0  0  0  0  0  0  0  0  0
   33.6682   37.5571   53.1326 H   0  0  0  0  0  0  0  0  0  0  0  0
   34.2690   38.9864   55.4932 H   0  0  0  0  0  0  0  0  0  0  0  0
   33.0481   38.4203   59.0880 H   0  0  0  0  0  0  0  0  0  0  0  0
   31.3385   37.9607   58.9037 H   0  0  0  0  0  0  0  0  0  0  0  0
   31.7397   38.9603   61.1316 H   0  0  0  0  0  0  0  0  0  0  0  0
   32.9841   37.7309   61.4649 H   0  0  0  0  0  0  0  0  0  0  0  0
   30.0272   37.1968   60.9198 H   0  0  0  0  0  0  0  0  0  0  0  0
   31.7358   36.8855   63.4310 H   0  0  0  0  0  0  0  0  0  0  0  0
   30.4937   38.1330   63.1686 H   0  0  0  0  0  0  0  0  0  0  0  0
   30.0249   36.4194   63.2772 H   0  0  0  0  0  0  0  0  0  0  0  0
   30.6015   34.8440   61.3909 H   0  0  0  0  0  0  0  0  0  0  0  0
   32.3095   35.2915   61.6185 H   0  0  0  0  0  0  0  0  0  0  0  0
   30.6969   35.6403   59.0499 H   0  0  0  0  0  0  0  0  0  0  0  0
   31.9352   34.3956   59.3416 H   0  0  0  0  0  0  0  0  0  0  0  0
  1  2  1  0  0  0  0
  1 21  1  0  0  0  0
  1 22  1  0  0  0  0
  1 23  1  0  0  0  0
  2  3  1  0  0  0  0
  3  4  2  0  0  0  0
  3  5  1  0  0  0  0
  5  6  1  0  0  0  0
  5 24  1  0  0  0  0
  5 25  1  0  0  0  0
  6  7  1  0  0  0  0
  6 26  1  0  0  0  0
  7 20  2  0  0  0  0
  7  8  1  0  0  0  0
  8  9  2  0  0  0  0
  9 10  1  0  0  0  0
  9 11  1  0  0  0  0
 11 12  2  0  0  0  0
 12 13  1  0  0  0  0
 12 20  1  0  0  0  0
 13 19  1  0  0  0  0
 13 14  1  0  0  0  0
 14 15  1  0  0  0  0
 14 27  1  0  0  0  0
 14 28  1  0  0  0  0
 15 16  1  0  0  0  0
 15 29  1  0  0  0  0
 15 30  1  0  0  0  0
 16 17  1  0  0  0  0
 16 18  1  0  0  0  0
 16 31  1  0  0  0  0
 17 32  1  0  0  0  0
 17 33  1  0  0  0  0
 17 34  1  0  0  0  0
 18 19  1  0  0  0  0
 18 35  1  0  0  0  0
 18 36  1  0  0  0  0
 19 37  1  0  0  0  0
 19 38  1  0  0  0  0
M  END
$$$$
