ZINC000000047123      none
 OpenBabel11202420153D

 44 46  0  0  0  0  0  0  0  0999 V2000
   35.4074   39.1198   53.3285 C   0  0  0  0  0  0  0  0  0  0  0  0
   34.9086   39.4522   54.6258 O   0  0  0  0  0  0  0  0  0  0  0  0
   34.3208   38.4524   55.3359 C   0  0  0  0  0  0  0  0  0  0  0  0
   34.2276   37.1752   54.7887 C   0  0  0  0  0  0  0  0  0  0  0  0
   33.6436   36.1494   55.4977 C   0  0  0  0  0  0  0  0  0  0  0  0
   33.1269   36.3876   56.7670 C   0  0  0  0  0  0  0  0  0  0  0  0
   32.4868   35.5914   57.6933 N   0  0  0  0  0  0  0  0  0  0  0  0
   32.2855   34.6499   57.5748 H   0  0  0  0  0  0  0  0  0  0  0  0
   32.1777   36.3276   58.8041 C   0  0  0  0  0  0  0  0  0  0  0  0
   32.5941   37.5938   58.6445 C   0  0  0  0  0  0  0  0  0  0  0  0
   32.4445   38.7182   59.6366 C   0  0  0  0  0  0  0  0  0  0  0  0
   31.7314   38.2025   60.8881 C   0  0  0  0  0  0  0  0  0  0  0  0
   32.5187   37.1228   61.4887 N   0  0  0  0  0  0  0  0  0  0  0  0
   31.9823   36.3735   62.8647 S   0  0  0  0  0  0  0  0  0  0  0  0
   33.0217   35.4956   63.2747 O   0  0  0  0  0  0  0  0  0  0  0  0
   30.6578   35.9364   62.5931 O   0  0  0  0  0  0  0  0  0  0  0  0
   31.8522   37.6087   64.1143 C   0  0  0  0  0  0  0  0  0  0  0  0
   32.9317   37.8783   64.9348 C   0  0  0  0  0  0  0  0  0  0  0  0
   32.8314   38.8511   65.9118 C   0  0  0  0  0  0  0  0  0  0  0  0
   31.6478   39.5464   66.0760 C   0  0  0  0  0  0  0  0  0  0  0  0
   31.5364   40.6024   67.1451 C   0  0  0  0  0  0  0  0  0  0  0  0
   30.5667   39.2731   65.2590 C   0  0  0  0  0  0  0  0  0  0  0  0
   30.6689   38.3043   64.2782 C   0  0  0  0  0  0  0  0  0  0  0  0
   33.2157   37.6771   57.3206 C   0  0  0  0  0  0  0  0  0  0  0  0
   33.8184   38.7079   56.5960 C   0  0  0  0  0  0  0  0  0  0  0  0
   35.8501   40.0049   52.8716 H   0  0  0  0  0  0  0  0  0  0  0  0
   36.1641   38.3405   53.4188 H   0  0  0  0  0  0  0  0  0  0  0  0
   34.5884   38.7605   52.7054 H   0  0  0  0  0  0  0  0  0  0  0  0
   34.6238   36.9857   53.8020 H   0  0  0  0  0  0  0  0  0  0  0  0
   33.5756   35.1630   55.0632 H   0  0  0  0  0  0  0  0  0  0  0  0
   31.6739   35.9464   59.6801 H   0  0  0  0  0  0  0  0  0  0  0  0
   31.8589   39.5216   59.1896 H   0  0  0  0  0  0  0  0  0  0  0  0
   33.4301   39.0955   59.9094 H   0  0  0  0  0  0  0  0  0  0  0  0
   30.7458   37.8252   60.6154 H   0  0  0  0  0  0  0  0  0  0  0  0
   31.6233   39.0158   61.6058 H   0  0  0  0  0  0  0  0  0  0  0  0
   33.3542   36.8468   61.0804 H   0  0  0  0  0  0  0  0  0  0  0  0
   33.8547   37.3317   64.8098 H   0  0  0  0  0  0  0  0  0  0  0  0
   33.6760   39.0648   66.5499 H   0  0  0  0  0  0  0  0  0  0  0  0
   31.1845   40.1468   68.0705 H   0  0  0  0  0  0  0  0  0  0  0  0
   32.5139   41.0552   67.3118 H   0  0  0  0  0  0  0  0  0  0  0  0
   30.8305   41.3692   66.8262 H   0  0  0  0  0  0  0  0  0  0  0  0
   29.6421   39.8163   65.3871 H   0  0  0  0  0  0  0  0  0  0  0  0
   29.8242   38.0907   63.6401 H   0  0  0  0  0  0  0  0  0  0  0  0
   33.8907   39.6990   57.0189 H   0  0  0  0  0  0  0  0  0  0  0  0
  1  2  1  0  0  0  0
  1 26  1  0  0  0  0
  1 27  1  0  0  0  0
  1 28  1  0  0  0  0
  2  3  1  0  0  0  0
  3 25  2  0  0  0  0
  3  4  1  0  0  0  0
  4  5  2  0  0  0  0
  4 29  1  0  0  0  0
  5  6  1  0  0  0  0
  5 30  1  0  0  0  0
  6 24  2  0  0  0  0
  6  7  1  0  0  0  0
  7  8  1  0  0  0  0
  7  9  1  0  0  0  0
  9 10  2  0  0  0  0
  9 31  1  0  0  0  0
 10 11  1  0  0  0  0
 10 24  1  0  0  0  0
 11 12  1  0  0  0  0
 11 32  1  0  0  0  0
 11 33  1  0  0  0  0
 12 13  1  0  0  0  0
 12 34  1  0  0  0  0
 12 35  1  0  0  0  0
 13 14  1  0  0  0  0
 13 36  1  0  0  0  0
 14 15  2  0  0  0  0
 14 16  2  0  0  0  0
 14 17  1  0  0  0  0
 17 23  2  0  0  0  0
 17 18  1  0  0  0  0
 18 19  2  0  0  0  0
 18 37  1  0  0  0  0
 19 20  1  0  0  0  0
 19 38  1  0  0  0  0
 20 21  1  0  0  0  0
 20 22  2  0  0  0  0
 21 39  1  0  0  0  0
 21 40  1  0  0  0  0
 21 41  1  0  0  0  0
 22 23  1  0  0  0  0
 22 42  1  0  0  0  0
 23 43  1  0  0  0  0
 24 25  1  0  0  0  0
 25 44  1  0  0  0  0
M  END
$$$$
