ZINC000000007303      none
 OpenBabel11202420153D

 40 43  0  0  1  0  0  0  0  0999 V2000
   32.3169   36.3922   65.2956 C   0  0  0  0  0  0  0  0  0  0  0  0
   30.8262   36.7368   65.2818 C   0  0  1  0  0  0  0  0  0  0  0  0
   30.3787   37.4092   66.5904 C   0  0  0  0  0  0  0  0  0  0  0  0
   30.8553   38.8738   66.3848 C   0  0  0  0  0  0  0  0  0  0  0  0
   30.9833   39.0412   64.8501 C   0  0  0  0  0  0  0  0  0  0  0  0
   30.5208   37.7830   64.2731 N   0  0  0  0  0  0  0  0  0  0  0  0
   30.9502   37.4158   63.0240 C   0  0  0  0  0  0  0  0  0  0  0  0
   31.3523   38.3927   62.1209 C   0  0  0  0  0  0  0  0  0  0  0  0
   31.7389   38.0422   60.8376 C   0  0  0  0  0  0  0  0  0  0  0  0
   32.1430   39.0006   59.9309 N   0  0  0  0  0  0  0  0  0  0  0  0
   32.1669   39.9338   60.1944 H   0  0  0  0  0  0  0  0  0  0  0  0
   32.5046   38.6482   58.6830 C   0  0  0  0  0  0  0  0  0  0  0  0
   32.8590   39.5084   57.8952 O   0  0  0  0  0  0  0  0  0  0  0  0
   32.4794   37.2994   58.2730 C   0  0  0  0  0  0  0  0  0  0  0  0
   32.0932   36.3279   59.1369 C   0  0  0  0  0  0  0  0  0  0  0  0
   32.0662   34.8857   58.7002 C   0  0  0  0  0  0  0  0  0  0  0  0
   32.4795   34.7944   57.3668 F   0  0  0  0  0  0  0  0  0  0  0  0
   32.9291   34.1376   59.5083 F   0  0  0  0  0  0  0  0  0  0  0  0
   30.7649   34.3865   58.8203 F   0  0  0  0  0  0  0  0  0  0  0  0
   31.7157   36.6855   60.4569 C   0  0  0  0  0  0  0  0  0  0  0  0
   31.3244   35.7130   61.3823 C   0  0  0  0  0  0  0  0  0  0  0  0
   30.9526   36.0664   62.6514 C   0  0  0  0  0  0  0  0  0  0  0  0
   30.5600   34.9617   63.6005 C   0  0  0  0  0  0  0  0  0  0  0  0
   29.9819   35.5227   64.9059 C   0  0  0  0  0  0  0  0  0  0  0  0
   32.6229   36.0630   64.3025 H   0  0  0  0  0  0  0  0  0  0  0  0
   32.8910   37.2743   65.5791 H   0  0  0  0  0  0  0  0  0  0  0  0
   32.4985   35.5938   66.0151 H   0  0  0  0  0  0  0  0  0  0  0  0
   30.8740   36.9557   67.4489 H   0  0  0  0  0  0  0  0  0  0  0  0
   29.2952   37.3645   66.7005 H   0  0  0  0  0  0  0  0  0  0  0  0
   31.8216   39.0286   66.8648 H   0  0  0  0  0  0  0  0  0  0  0  0
   30.1180   39.5714   66.7819 H   0  0  0  0  0  0  0  0  0  0  0  0
   32.0233   39.2204   64.5768 H   0  0  0  0  0  0  0  0  0  0  0  0
   30.3567   39.8648   64.5081 H   0  0  0  0  0  0  0  0  0  0  0  0
   31.3637   39.4300   62.4211 H   0  0  0  0  0  0  0  0  0  0  0  0
   32.7688   37.0386   57.2658 H   0  0  0  0  0  0  0  0  0  0  0  0
   31.3161   34.6724   61.0930 H   0  0  0  0  0  0  0  0  0  0  0  0
   31.4392   34.3596   63.8298 H   0  0  0  0  0  0  0  0  0  0  0  0
   29.8117   34.3299   63.1218 H   0  0  0  0  0  0  0  0  0  0  0  0
   28.9449   35.8228   64.7551 H   0  0  0  0  0  0  0  0  0  0  0  0
   30.0407   34.7705   65.6925 H   0  0  0  0  0  0  0  0  0  0  0  0
  1 25  1  0  0  0  0
  1 26  1  0  0  0  0
  1 27  1  0  0  0  0
  2  1  1  1  0  0  0
  2  6  1  0  0  0  0
  2 24  1  0  0  0  0
  2  3  1  0  0  0  0
  3  4  1  0  0  0  0
  3 28  1  0  0  0  0
  3 29  1  0  0  0  0
  4  5  1  0  0  0  0
  4 30  1  0  0  0  0
  4 31  1  0  0  0  0
  5  6  1  0  0  0  0
  5 32  1  0  0  0  0
  5 33  1  0  0  0  0
  6  7  1  0  0  0  0
  7 22  2  0  0  0  0
  7  8  1  0  0  0  0
  8  9  2  0  0  0  0
  8 34  1  0  0  0  0
  9 20  1  0  0  0  0
  9 10  1  0  0  0  0
 10 11  1  0  0  0  0
 10 12  1  0  0  0  0
 12 13  2  0  0  0  0
 12 14  1  0  0  0  0
 14 15  2  0  0  0  0
 14 35  1  0  0  0  0
 15 16  1  0  0  0  0
 15 20  1  0  0  0  0
 16 17  1  0  0  0  0
 16 18  1  0  0  0  0
 16 19  1  0  0  0  0
 20 21  2  0  0  0  0
 21 22  1  0  0  0  0
 21 36  1  0  0  0  0
 22 23  1  0  0  0  0
 23 24  1  0  0  0  0
 23 37  1  0  0  0  0
 23 38  1  0  0  0  0
 24 39  1  0  0  0  0
 24 40  1  0  0  0  0
M  END
$$$$
