ZINC000000041248      none
 OpenBabel11202420153D

 28 30  0  0  0  0  0  0  0  0999 V2000
   31.2771   37.7271   61.6766 C   0  0  0  0  0  0  0  0  0  0  0  0
   31.7194   37.6102   60.2407 C   0  0  0  0  0  0  0  0  0  0  0  0
   31.9222   36.4021   59.7115 C   0  0  0  0  0  0  0  0  0  0  0  0
   31.7102   35.1994   60.5398 C   0  0  0  0  0  0  0  0  0  0  0  0
   31.9269   33.9328   59.9918 C   0  0  0  0  0  0  0  0  0  0  0  0
   31.7243   32.8162   60.7812 C   0  0  0  0  0  0  0  0  0  0  0  0
   31.3111   32.9981   62.0950 C   0  0  0  0  0  0  0  0  0  0  0  0
   31.1152   34.2795   62.5741 C   0  0  0  0  0  0  0  0  0  0  0  0
   31.3198   35.3293   61.8039 N   0  0  0  0  0  0  0  0  0  0  0  0
   32.3220   36.2643   58.4167 O   0  0  0  0  0  0  0  0  0  0  0  0
   32.8013   37.3662   57.7788 C   0  0  0  0  0  0  0  0  0  0  0  0
   33.4990   37.2442   56.5908 C   0  0  0  0  0  0  0  0  0  0  0  0
   33.9764   38.3756   55.9518 C   0  0  0  0  0  0  0  0  0  0  0  0
   33.7674   39.6250   56.5036 C   0  0  0  0  0  0  0  0  0  0  0  0
   33.0740   39.7523   57.6949 C   0  0  0  0  0  0  0  0  0  0  0  0
   32.5896   38.6253   58.3344 C   0  0  0  0  0  0  0  0  0  0  0  0
   31.9058   38.7344   59.5053 O   0  0  0  0  0  0  0  0  0  0  0  0
   32.0606   37.3440   62.3304 H   0  0  0  0  0  0  0  0  0  0  0  0
   31.0855   38.7736   61.9137 H   0  0  0  0  0  0  0  0  0  0  0  0
   30.3654   37.1483   61.8243 H   0  0  0  0  0  0  0  0  0  0  0  0
   32.2485   33.8274   58.9662 H   0  0  0  0  0  0  0  0  0  0  0  0
   31.8840   31.8242   60.3854 H   0  0  0  0  0  0  0  0  0  0  0  0
   31.1448   32.1455   62.7366 H   0  0  0  0  0  0  0  0  0  0  0  0
   30.7938   34.4229   63.5951 H   0  0  0  0  0  0  0  0  0  0  0  0
   33.6676   36.2681   56.1603 H   0  0  0  0  0  0  0  0  0  0  0  0
   34.5173   38.2812   55.0218 H   0  0  0  0  0  0  0  0  0  0  0  0
   34.1459   40.5046   56.0041 H   0  0  0  0  0  0  0  0  0  0  0  0
   32.9117   40.7298   58.1246 H   0  0  0  0  0  0  0  0  0  0  0  0
  1  2  1  0  0  0  0
  1 18  1  0  0  0  0
  1 19  1  0  0  0  0
  1 20  1  0  0  0  0
  2 17  1  0  0  0  0
  2  3  2  0  0  0  0
  3  4  1  0  0  0  0
  3 10  1  0  0  0  0
  4  9  2  0  0  0  0
  4  5  1  0  0  0  0
  5  6  2  0  0  0  0
  5 21  1  0  0  0  0
  6  7  1  0  0  0  0
  6 22  1  0  0  0  0
  7  8  2  0  0  0  0
  7 23  1  0  0  0  0
  8  9  1  0  0  0  0
  8 24  1  0  0  0  0
 10 11  1  0  0  0  0
 11 16  2  0  0  0  0
 11 12  1  0  0  0  0
 12 13  2  0  0  0  0
 12 25  1  0  0  0  0
 13 14  1  0  0  0  0
 13 26  1  0  0  0  0
 14 15  2  0  0  0  0
 14 27  1  0  0  0  0
 15 16  1  0  0  0  0
 15 28  1  0  0  0  0
 16 17  1  0  0  0  0
M  END
$$$$
