ZINC000000032731      none
 OpenBabel11202420153D

 42 43  0  0  0  0  0  0  0  0999 V2000
   31.6552   33.0093   60.3091 C   0  0  0  0  0  0  0  0  0  0  0  0
   32.2023   33.9927   61.3458 C   0  0  0  0  0  0  0  0  0  0  0  0
   31.4464   35.2458   61.2767 N   0  0  0  0  0  0  0  0  0  0  0  0
   30.2480   35.4248   62.1001 C   0  0  0  0  0  0  0  0  0  0  0  0
   30.6263   36.0110   63.3962 C   0  0  0  0  0  0  0  0  0  0  0  0
   30.9281   36.4785   64.4300 C   0  0  0  0  0  0  0  0  0  0  0  0
   31.3065   37.0647   65.7262 C   0  0  0  0  0  0  0  0  0  0  0  0
   32.2185   36.1916   66.3957 O   0  0  0  0  0  0  0  0  0  0  0  0
   30.0550   37.2516   66.5861 C   0  0  0  0  0  0  0  0  0  0  0  0
   29.0785   38.1863   65.8693 C   0  0  0  0  0  0  0  0  0  0  0  0
   29.7471   39.5433   65.6396 C   0  0  0  0  0  0  0  0  0  0  0  0
   30.9986   39.3563   64.7798 C   0  0  0  0  0  0  0  0  0  0  0  0
   31.9750   38.4216   65.4966 C   0  0  0  0  0  0  0  0  0  0  0  0
   31.8685   36.2700   60.4260 C   0  0  0  0  0  0  0  0  0  0  0  0
   32.5431   35.9649   59.2506 C   0  0  0  0  0  0  0  0  0  0  0  0
   32.9548   36.9798   58.4092 C   0  0  0  0  0  0  0  0  0  0  0  0
   32.7053   38.2990   58.7409 C   0  0  0  0  0  0  0  0  0  0  0  0
   32.0386   38.6063   59.9127 C   0  0  0  0  0  0  0  0  0  0  0  0
   31.6195   37.5962   60.7560 C   0  0  0  0  0  0  0  0  0  0  0  0
   32.2175   32.0771   60.3606 H   0  0  0  0  0  0  0  0  0  0  0  0
   30.6034   32.8112   60.5160 H   0  0  0  0  0  0  0  0  0  0  0  0
   31.7548   33.4393   59.3126 H   0  0  0  0  0  0  0  0  0  0  0  0
   33.2540   34.1910   61.1391 H   0  0  0  0  0  0  0  0  0  0  0  0
   32.1026   33.5629   62.3425 H   0  0  0  0  0  0  0  0  0  0  0  0
   29.7717   34.4581   62.2636 H   0  0  0  0  0  0  0  0  0  0  0  0
   29.5524   36.0907   61.5894 H   0  0  0  0  0  0  0  0  0  0  0  0
   32.5111   36.5152   67.2588 H   0  0  0  0  0  0  0  0  0  0  0  0
   30.3351   37.6858   67.5460 H   0  0  0  0  0  0  0  0  0  0  0  0
   29.5787   36.2850   66.7497 H   0  0  0  0  0  0  0  0  0  0  0  0
   28.1869   38.3196   66.4819 H   0  0  0  0  0  0  0  0  0  0  0  0
   28.7984   37.7523   64.9095 H   0  0  0  0  0  0  0  0  0  0  0  0
   29.0515   40.2093   65.1289 H   0  0  0  0  0  0  0  0  0  0  0  0
   30.0272   39.9774   66.5994 H   0  0  0  0  0  0  0  0  0  0  0  0
   30.7184   38.9223   63.8199 H   0  0  0  0  0  0  0  0  0  0  0  0
   31.4748   40.3231   64.6161 H   0  0  0  0  0  0  0  0  0  0  0  0
   32.8665   38.2884   64.8840 H   0  0  0  0  0  0  0  0  0  0  0  0
   32.2551   38.8557   66.4564 H   0  0  0  0  0  0  0  0  0  0  0  0
   32.7422   34.9352   58.9932 H   0  0  0  0  0  0  0  0  0  0  0  0
   33.4758   36.7432   57.4933 H   0  0  0  0  0  0  0  0  0  0  0  0
   33.0323   39.0909   58.0833 H   0  0  0  0  0  0  0  0  0  0  0  0
   31.8456   39.6376   60.1689 H   0  0  0  0  0  0  0  0  0  0  0  0
   31.0992   37.8370   61.6712 H   0  0  0  0  0  0  0  0  0  0  0  0
  1  2  1  0  0  0  0
  1 20  1  0  0  0  0
  1 21  1  0  0  0  0
  1 22  1  0  0  0  0
  2  3  1  0  0  0  0
  2 23  1  0  0  0  0
  2 24  1  0  0  0  0
  3  4  1  0  0  0  0
  3 14  1  0  0  0  0
  4  5  1  0  0  0  0
  4 25  1  0  0  0  0
  4 26  1  0  0  0  0
  5  6  3  0  0  0  0
  6  7  1  0  0  0  0
  7 13  1  0  0  0  0
  7  8  1  0  0  0  0
  7  9  1  0  0  0  0
  8 27  1  0  0  0  0
  9 10  1  0  0  0  0
  9 28  1  0  0  0  0
  9 29  1  0  0  0  0
 10 11  1  0  0  0  0
 10 30  1  0  0  0  0
 10 31  1  0  0  0  0
 11 12  1  0  0  0  0
 11 32  1  0  0  0  0
 11 33  1  0  0  0  0
 12 13  1  0  0  0  0
 12 34  1  0  0  0  0
 12 35  1  0  0  0  0
 13 36  1  0  0  0  0
 13 37  1  0  0  0  0
 14 19  2  0  0  0  0
 14 15  1  0  0  0  0
 15 16  2  0  0  0  0
 15 38  1  0  0  0  0
 16 17  1  0  0  0  0
 16 39  1  0  0  0  0
 17 18  2  0  0  0  0
 17 40  1  0  0  0  0
 18 19  1  0  0  0  0
 18 41  1  0  0  0  0
 19 42  1  0  0  0  0
M  END
$$$$
