ZINC000000037906      none
 OpenBabel11202420153D

 25 27  0  0  0  0  0  0  0  0999 V2000
   34.1952   39.9444   56.2057 O   0  0  0  0  0  0  0  0  0  0  0  0
   33.6734   39.1281   56.9407 C   0  0  0  0  0  0  0  0  0  0  0  0
   33.1113   39.5482   58.0860 N   0  0  0  0  0  0  0  0  0  0  0  0
   33.1294   40.4920   58.3097 H   0  0  0  0  0  0  0  0  0  0  0  0
   32.5283   38.6769   58.9302 C   0  0  0  0  0  0  0  0  0  0  0  0
   32.0255   39.0658   59.9687 O   0  0  0  0  0  0  0  0  0  0  0  0
   32.5022   37.2457   58.5769 C   0  0  0  0  0  0  0  0  0  0  0  0
   31.9396   36.1117   59.3001 C   0  0  0  0  0  0  0  0  0  0  0  0
   31.2504   36.2531   60.6048 C   0  0  0  0  0  0  0  0  0  0  0  0
   31.9741   36.1577   61.7926 C   0  0  0  0  0  0  0  0  0  0  0  0
   31.3281   36.2963   63.0042 C   0  0  0  0  0  0  0  0  0  0  0  0
   29.9630   36.5172   63.0417 C   0  0  0  0  0  0  0  0  0  0  0  0
   29.2386   36.6070   61.8666 C   0  0  0  0  0  0  0  0  0  0  0  0
   29.8748   36.4762   60.6490 C   0  0  0  0  0  0  0  0  0  0  0  0
   32.0974   34.9379   58.6904 C   0  0  0  0  0  0  0  0  0  0  0  0
   32.9529   35.1278   57.1717 S   0  0  0  0  0  0  0  0  0  0  0  0
   33.0939   36.8669   57.3873 C   0  0  0  0  0  0  0  0  0  0  0  0
   33.6759   37.8353   56.5834 N   0  0  0  0  0  0  0  0  0  0  0  0
   34.0920   37.5731   55.7472 H   0  0  0  0  0  0  0  0  0  0  0  0
   33.0392   35.9806   61.7646 H   0  0  0  0  0  0  0  0  0  0  0  0
   31.8885   36.2274   63.9248 H   0  0  0  0  0  0  0  0  0  0  0  0
   29.4608   36.6202   63.9923 H   0  0  0  0  0  0  0  0  0  0  0  0
   28.1732   36.7803   61.9021 H   0  0  0  0  0  0  0  0  0  0  0  0
   29.3084   36.5469   59.7323 H   0  0  0  0  0  0  0  0  0  0  0  0
   31.7446   33.9943   59.0797 H   0  0  0  0  0  0  0  0  0  0  0  0
  1  2  2  0  0  0  0
  2 18  1  0  0  0  0
  2  3  1  0  0  0  0
  3  4  1  0  0  0  0
  3  5  1  0  0  0  0
  5  6  2  0  0  0  0
  5  7  1  0  0  0  0
  7 17  2  0  0  0  0
  7  8  1  0  0  0  0
  8  9  1  0  0  0  0
  8 15  2  0  0  0  0
  9 14  2  0  0  0  0
  9 10  1  0  0  0  0
 10 11  2  0  0  0  0
 10 20  1  0  0  0  0
 11 12  1  0  0  0  0
 11 21  1  0  0  0  0
 12 13  2  0  0  0  0
 12 22  1  0  0  0  0
 13 14  1  0  0  0  0
 13 23  1  0  0  0  0
 14 24  1  0  0  0  0
 15 16  1  0  0  0  0
 15 25  1  0  0  0  0
 16 17  1  0  0  0  0
 17 18  1  0  0  0  0
 18 19  1  0  0  0  0
M  END
$$$$
