ZINC000000056847      none
 OpenBabel11202420153D

 40 41  0  0  1  0  0  0  0  0999 V2000
   30.9177   39.0066   67.3450 C   0  0  0  0  0  0  0  0  0  0  0  0
   31.8775   37.8572   67.0311 C   0  0  0  0  0  0  0  0  0  0  0  0
   33.1791   38.0467   67.8126 C   0  0  0  0  0  0  0  0  0  0  0  0
   31.2723   36.6104   67.3981 O   0  0  0  0  0  0  0  0  0  0  0  0
   31.1671   35.8159   66.1994 C   0  0  0  0  0  0  0  0  0  0  0  0
   31.2315   36.8746   65.0704 C   0  0  2  0  0  0  0  0  0  0  0  0
   30.2540   37.3274   64.9038 H   0  0  0  0  0  0  0  0  0  0  0  0
   31.7768   36.2644   63.7777 C   0  0  2  0  0  0  0  0  0  0  0  0
   31.1262   35.4506   63.4573 H   0  0  0  0  0  0  0  0  0  0  0  0
   33.0935   35.7590   64.0079 O   0  0  0  0  0  0  0  0  0  0  0  0
   31.8257   37.3374   62.6881 C   0  0  1  0  0  0  0  0  0  0  0  0
   32.4736   38.1584   62.9951 H   0  0  0  0  0  0  0  0  0  0  0  0
   32.2897   36.7710   61.4495 O   0  0  0  0  0  0  0  0  0  0  0  0
   31.2202   36.9021   60.4975 C   0  0  0  0  0  0  0  0  0  0  0  0
   31.7870   37.1868   59.1052 C   0  0  0  0  0  0  0  0  0  0  0  0
   30.3792   35.6243   60.4715 C   0  0  0  0  0  0  0  0  0  0  0  0
   30.4184   38.0167   60.9445 O   0  0  0  0  0  0  0  0  0  0  0  0
   30.4037   37.8582   62.3841 C   0  0  2  0  0  0  0  0  0  0  0  0
   29.6528   37.1274   62.6841 H   0  0  0  0  0  0  0  0  0  0  0  0
   30.1602   39.2018   63.0743 C   0  0  0  0  0  0  0  0  0  0  0  0
   28.7544   39.4358   63.1785 O   0  0  0  0  0  0  0  0  0  0  0  0
   32.1616   37.8375   65.6216 O   0  0  0  0  0  0  0  0  0  0  0  0
   30.7151   39.0287   68.4158 H   0  0  0  0  0  0  0  0  0  0  0  0
   31.3697   39.9508   67.0412 H   0  0  0  0  0  0  0  0  0  0  0  0
   29.9843   38.8592   66.8016 H   0  0  0  0  0  0  0  0  0  0  0  0
   33.8536   37.2169   67.6016 H   0  0  0  0  0  0  0  0  0  0  0  0
   33.6500   38.9829   67.5127 H   0  0  0  0  0  0  0  0  0  0  0  0
   32.9610   38.0752   68.8802 H   0  0  0  0  0  0  0  0  0  0  0  0
   30.2171   35.2821   66.1733 H   0  0  0  0  0  0  0  0  0  0  0  0
   32.0014   35.1187   66.1218 H   0  0  0  0  0  0  0  0  0  0  0  0
   33.1260   35.0102   64.6189 H   0  0  0  0  0  0  0  0  0  0  0  0
   32.4364   36.3654   58.8024 H   0  0  0  0  0  0  0  0  0  0  0  0
   30.9682   37.2843   58.3924 H   0  0  0  0  0  0  0  0  0  0  0  0
   32.3605   38.1135   59.1288 H   0  0  0  0  0  0  0  0  0  0  0  0
   29.8620   35.5102   61.4241 H   0  0  0  0  0  0  0  0  0  0  0  0
   29.6474   35.6873   59.6660 H   0  0  0  0  0  0  0  0  0  0  0  0
   31.0289   34.7650   60.3057 H   0  0  0  0  0  0  0  0  0  0  0  0
   30.6003   39.1831   64.0714 H   0  0  0  0  0  0  0  0  0  0  0  0
   30.6188   39.9992   62.4895 H   0  0  0  0  0  0  0  0  0  0  0  0
   28.2803   38.7638   63.6871 H   0  0  0  0  0  0  0  0  0  0  0  0
  1  2  1  0  0  0  0
  1 23  1  0  0  0  0
  1 24  1  0  0  0  0
  1 25  1  0  0  0  0
  2 22  1  0  0  0  0
  2  3  1  0  0  0  0
  2  4  1  0  0  0  0
  3 26  1  0  0  0  0
  3 27  1  0  0  0  0
  3 28  1  0  0  0  0
  4  5  1  0  0  0  0
  5  6  1  0  0  0  0
  5 29  1  0  0  0  0
  5 30  1  0  0  0  0
  6  7  1  6  0  0  0
  6  8  1  0  0  0  0
  6 22  1  0  0  0  0
  8  9  1  6  0  0  0
  8 10  1  0  0  0  0
  8 11  1  0  0  0  0
 10 31  1  0  0  0  0
 11 12  1  1  0  0  0
 11 18  1  0  0  0  0
 11 13  1  0  0  0  0
 13 14  1  0  0  0  0
 14 15  1  0  0  0  0
 14 16  1  0  0  0  0
 14 17  1  0  0  0  0
 15 32  1  0  0  0  0
 15 33  1  0  0  0  0
 15 34  1  0  0  0  0
 16 35  1  0  0  0  0
 16 36  1  0  0  0  0
 16 37  1  0  0  0  0
 17 18  1  0  0  0  0
 18 19  1  1  0  0  0
 18 20  1  0  0  0  0
 20 21  1  0  0  0  0
 20 38  1  0  0  0  0
 20 39  1  0  0  0  0
 21 40  1  0  0  0  0
M  END
$$$$
