ZINC000000037160      none
 OpenBabel11202420153D

 23 24  0  0  0  0  0  0  0  0999 V2000
   32.4905   34.8239   58.2943 O   0  0  0  0  0  0  0  0  0  0  0  0
   32.9128   35.2567   57.2407 C   0  0  0  0  0  0  0  0  0  0  0  0
   33.1179   34.3453   56.0972 C   0  0  0  0  0  0  0  0  0  0  0  0
   32.4292   34.5553   54.9003 C   0  0  0  0  0  0  0  0  0  0  0  0
   32.6252   33.6999   53.8364 C   0  0  0  0  0  0  0  0  0  0  0  0
   33.4980   32.6322   53.9545 C   0  0  0  0  0  0  0  0  0  0  0  0
   34.1874   32.4214   55.1353 C   0  0  0  0  0  0  0  0  0  0  0  0
   35.1226   31.2798   55.2506 N   0  0  0  0  0  0  0  0  0  0  0  0
   35.2846   30.5274   54.3064 O   0  0  0  0  0  0  0  0  0  0  0  0
   35.7304   31.0929   56.2894 O   0  0  0  0  0  0  0  0  0  0  0  0
   34.0009   33.2691   56.2075 C   0  0  0  0  0  0  0  0  0  0  0  0
   33.1940   36.5689   57.1155 N   0  0  0  0  0  0  0  0  0  0  0  0
   33.0467   37.5179   58.0826 C   0  0  0  0  0  0  0  0  0  0  0  0
   33.4404   38.6994   57.5576 C   0  0  0  0  0  0  0  0  0  0  0  0
   33.4538   40.2282   58.3800 Cl  0  0  0  0  0  0  0  0  0  0  0  0
   33.8314   38.4738   56.2297 C   0  0  0  0  0  0  0  0  0  0  0  0
   33.6842   37.2022   55.9661 N   0  0  0  0  0  0  0  0  0  0  0  0
   31.7444   35.3854   54.8082 H   0  0  0  0  0  0  0  0  0  0  0  0
   32.0931   33.8608   52.9105 H   0  0  0  0  0  0  0  0  0  0  0  0
   33.6444   31.9628   53.1197 H   0  0  0  0  0  0  0  0  0  0  0  0
   34.5370   33.1011   57.1301 H   0  0  0  0  0  0  0  0  0  0  0  0
   32.6834   37.3551   59.0866 H   0  0  0  0  0  0  0  0  0  0  0  0
   34.1931   39.2237   55.5417 H   0  0  0  0  0  0  0  0  0  0  0  0
  1  2  2  0  0  0  0
  2  3  1  0  0  0  0
  2 12  1  0  0  0  0
  3 11  2  0  0  0  0
  3  4  1  0  0  0  0
  4  5  2  0  0  0  0
  4 18  1  0  0  0  0
  5  6  1  0  0  0  0
  5 19  1  0  0  0  0
  6  7  2  0  0  0  0
  6 20  1  0  0  0  0
  7  8  1  0  0  0  0
  7 11  1  0  0  0  0
  8  9  2  0  0  0  0
  8 10  2  0  0  0  0
 11 21  1  0  0  0  0
 12 17  1  0  0  0  0
 12 13  1  0  0  0  0
 13 14  2  0  0  0  0
 13 22  1  0  0  0  0
 14 15  1  0  0  0  0
 14 16  1  0  0  0  0
 16 17  2  0  0  0  0
 16 23  1  0  0  0  0
M  END
$$$$
