ZINC000000030805      none
 OpenBabel11202420163D

 33 34  0  0  1  0  0  0  0  0999 V2000
   29.5884   36.8167   60.0207 C   0  0  0  0  0  0  0  0  0  0  0  0
   30.7791   37.1627   60.9171 C   0  0  2  0  0  0  0  0  0  0  0  0
   30.6665   38.1785   61.2961 H   0  0  0  0  0  0  0  0  0  0  0  0
   32.0767   37.0591   60.1075 C   0  0  0  0  0  0  0  0  0  0  0  0
   32.2994   35.6451   59.7666 N   0  0  0  0  0  0  0  0  0  0  0  0
   32.5598   35.2698   58.4986 C   0  0  0  0  0  0  0  0  0  0  0  0
   32.6133   36.1026   57.6186 O   0  0  0  0  0  0  0  0  0  0  0  0
   32.7844   33.8153   58.1743 C   0  0  0  0  0  0  0  0  0  0  0  0
   33.0539   33.6654   56.6992 C   0  0  0  0  0  0  0  0  0  0  0  0
   32.1236   33.4706   55.7633 C   0  0  0  0  0  0  0  0  0  0  0  0
   32.6092   33.3624   54.4717 C   0  0  0  0  0  0  0  0  0  0  0  0
   33.9341   33.4694   54.3586 C   0  0  0  0  0  0  0  0  0  0  0  0
   34.6427   33.7281   55.9473 S   0  0  0  0  0  0  0  0  0  0  0  0
   32.2290   34.6529   60.8509 C   0  0  0  0  0  0  0  0  0  0  0  0
   30.9240   34.8736   61.6244 C   0  0  1  0  0  0  0  0  0  0  0  0
   30.0764   34.6180   60.9886 H   0  0  0  0  0  0  0  0  0  0  0  0
   30.9130   33.9875   62.8716 C   0  0  0  0  0  0  0  0  0  0  0  0
   30.8338   36.2464   62.0131 O   0  0  0  0  0  0  0  0  0  0  0  0
   29.7008   35.8002   59.6435 H   0  0  0  0  0  0  0  0  0  0  0  0
   29.5500   37.5129   59.1829 H   0  0  0  0  0  0  0  0  0  0  0  0
   28.6661   36.8906   60.5970 H   0  0  0  0  0  0  0  0  0  0  0  0
   31.9874   37.6473   59.1941 H   0  0  0  0  0  0  0  0  0  0  0  0
   32.9113   37.4297   60.7026 H   0  0  0  0  0  0  0  0  0  0  0  0
   33.6396   33.4450   58.7394 H   0  0  0  0  0  0  0  0  0  0  0  0
   31.8965   33.2422   58.4416 H   0  0  0  0  0  0  0  0  0  0  0  0
   31.0711   33.4028   55.9959 H   0  0  0  0  0  0  0  0  0  0  0  0
   31.9645   33.2030   53.6200 H   0  0  0  0  0  0  0  0  0  0  0  0
   34.4866   33.4109   53.4324 H   0  0  0  0  0  0  0  0  0  0  0  0
   32.2407   33.6474   60.4299 H   0  0  0  0  0  0  0  0  0  0  0  0
   33.0794   34.7801   61.5209 H   0  0  0  0  0  0  0  0  0  0  0  0
   31.7599   34.2449   63.5077 H   0  0  0  0  0  0  0  0  0  0  0  0
   29.9848   34.1450   63.4210 H   0  0  0  0  0  0  0  0  0  0  0  0
   30.9863   32.9413   62.5747 H   0  0  0  0  0  0  0  0  0  0  0  0
  1  2  1  0  0  0  0
  1 19  1  0  0  0  0
  1 20  1  0  0  0  0
  1 21  1  0  0  0  0
  2  3  1  1  0  0  0
  2 18  1  0  0  0  0
  2  4  1  0  0  0  0
  4  5  1  0  0  0  0
  4 22  1  0  0  0  0
  4 23  1  0  0  0  0
  5  6  1  0  0  0  0
  5 14  1  0  0  0  0
  6  7  2  0  0  0  0
  6  8  1  0  0  0  0
  8  9  1  0  0  0  0
  8 24  1  0  0  0  0
  8 25  1  0  0  0  0
  9 13  1  0  0  0  0
  9 10  2  0  0  0  0
 10 11  1  0  0  0  0
 10 26  1  0  0  0  0
 11 12  2  0  0  0  0
 11 27  1  0  0  0  0
 12 13  1  0  0  0  0
 12 28  1  0  0  0  0
 14 15  1  0  0  0  0
 14 29  1  0  0  0  0
 14 30  1  0  0  0  0
 15 16  1  6  0  0  0
 15 17  1  0  0  0  0
 15 18  1  0  0  0  0
 17 31  1  0  0  0  0
 17 32  1  0  0  0  0
 17 33  1  0  0  0  0
M  END
$$$$
