ZINC000000012347      none
 OpenBabel11202420153D

 35 36  0  0  1  0  0  0  0  0999 V2000
   32.9689   33.2510   54.8496 C   0  0  0  0  0  0  0  0  0  0  0  0
   33.2292   34.6116   55.2001 O   0  0  0  0  0  0  0  0  0  0  0  0
   32.9113   34.9946   56.4645 C   0  0  0  0  0  0  0  0  0  0  0  0
   33.1438   36.3143   56.8649 C   0  0  0  0  0  0  0  0  0  0  0  0
   32.8365   36.7273   58.1234 C   0  0  0  0  0  0  0  0  0  0  0  0
   32.2771   35.8184   59.0386 C   0  0  0  0  0  0  0  0  0  0  0  0
   31.9481   36.2114   60.3470 C   0  0  0  0  0  0  0  0  0  0  0  0
   31.4084   35.3052   61.2071 C   0  0  0  0  0  0  0  0  0  0  0  0
   31.0571   35.7308   62.6094 C   0  0  2  0  0  0  0  0  0  0  0  0
   30.3226   36.5354   62.5716 H   0  0  0  0  0  0  0  0  0  0  0  0
   32.3171   36.2237   63.3235 C   0  0  0  0  0  0  0  0  0  0  0  0
   30.4961   34.5913   63.3394 N   0  0  0  0  0  0  0  0  0  0  0  0
   29.2458   34.6599   63.8380 C   0  0  0  0  0  0  0  0  0  0  0  0
   28.5835   35.6676   63.6818 O   0  0  0  0  0  0  0  0  0  0  0  0
   28.7296   33.6117   64.5098 N   0  0  0  0  0  0  0  0  0  0  0  0
   27.4182   33.6860   65.0387 O   0  0  0  0  0  0  0  0  0  0  0  0
   31.1809   33.9880   60.8123 C   0  0  0  0  0  0  0  0  0  0  0  0
   31.4814   33.5728   59.5516 C   0  0  0  0  0  0  0  0  0  0  0  0
   32.0404   34.4803   58.6351 C   0  0  0  0  0  0  0  0  0  0  0  0
   32.3691   34.0858   57.3278 C   0  0  0  0  0  0  0  0  0  0  0  0
   31.9042   33.0448   54.9591 H   0  0  0  0  0  0  0  0  0  0  0  0
   33.2679   33.0784   53.8157 H   0  0  0  0  0  0  0  0  0  0  0  0
   33.5361   32.5915   55.5067 H   0  0  0  0  0  0  0  0  0  0  0  0
   33.5731   37.0153   56.1643 H   0  0  0  0  0  0  0  0  0  0  0  0
   33.0213   37.7496   58.4188 H   0  0  0  0  0  0  0  0  0  0  0  0
   32.1224   37.2277   60.6683 H   0  0  0  0  0  0  0  0  0  0  0  0
   32.7346   37.0716   62.7803 H   0  0  0  0  0  0  0  0  0  0  0  0
   32.0631   36.5316   64.3378 H   0  0  0  0  0  0  0  0  0  0  0  0
   33.0516   35.4193   63.3613 H   0  0  0  0  0  0  0  0  0  0  0  0
   31.0244   33.7875   63.4640 H   0  0  0  0  0  0  0  0  0  0  0  0
   29.2581   32.8078   64.6344 H   0  0  0  0  0  0  0  0  0  0  0  0
   27.1357   32.8864   65.5034 H   0  0  0  0  0  0  0  0  0  0  0  0
   30.7556   33.2877   61.5158 H   0  0  0  0  0  0  0  0  0  0  0  0
   31.2953   32.5503   59.2581 H   0  0  0  0  0  0  0  0  0  0  0  0
   32.1938   33.0695   57.0070 H   0  0  0  0  0  0  0  0  0  0  0  0
  1  2  1  0  0  0  0
  1 21  1  0  0  0  0
  1 22  1  0  0  0  0
  1 23  1  0  0  0  0
  2  3  1  0  0  0  0
  3 20  2  0  0  0  0
  3  4  1  0  0  0  0
  4  5  2  0  0  0  0
  4 24  1  0  0  0  0
  5  6  1  0  0  0  0
  5 25  1  0  0  0  0
  6 19  2  0  0  0  0
  6  7  1  0  0  0  0
  7  8  2  0  0  0  0
  7 26  1  0  0  0  0
  8  9  1  0  0  0  0
  8 17  1  0  0  0  0
  9 10  1  6  0  0  0
  9 11  1  0  0  0  0
  9 12  1  0  0  0  0
 11 27  1  0  0  0  0
 11 28  1  0  0  0  0
 11 29  1  0  0  0  0
 12 13  1  0  0  0  0
 12 30  1  0  0  0  0
 13 14  2  0  0  0  0
 13 15  1  0  0  0  0
 15 16  1  0  0  0  0
 15 31  1  0  0  0  0
 16 32  1  0  0  0  0
 17 18  2  0  0  0  0
 17 33  1  0  0  0  0
 18 19  1  0  0  0  0
 18 34  1  0  0  0  0
 19 20  1  0  0  0  0
 20 35  1  0  0  0  0
M  END
$$$$
