ZINC000000035155      none
 OpenBabel11202420153D

 42 44  0  0  0  0  0  0  0  0999 V2000
   33.3498   39.3544   56.6558 C   0  0  0  0  0  0  0  0  0  0  0  0
   32.4748   38.2127   56.1346 C   0  0  0  0  0  0  0  0  0  0  0  0
   32.1082   37.3418   57.2371 O   0  0  0  0  0  0  0  0  0  0  0  0
   32.9364   36.3112   57.5048 C   0  0  0  0  0  0  0  0  0  0  0  0
   33.9378   36.1457   56.8345 O   0  0  0  0  0  0  0  0  0  0  0  0
   32.6299   35.3919   58.6024 C   0  0  0  0  0  0  0  0  0  0  0  0
   32.9986   34.0744   58.6049 C   0  0  0  0  0  0  0  0  0  0  0  0
   33.6976   33.4504   57.5849 N   0  0  0  0  0  0  0  0  0  0  0  0
   33.1775   33.4032   56.3425 C   0  0  0  0  0  0  0  0  0  0  0  0
   32.0945   33.9086   56.1170 O   0  0  0  0  0  0  0  0  0  0  0  0
   33.9208   32.7394   55.2575 C   0  0  0  0  0  0  0  0  0  0  0  0
   34.8537   31.6095   55.3809 C   0  0  0  0  0  0  0  0  0  0  0  0
   35.2880   31.3524   54.1376 C   0  0  0  0  0  0  0  0  0  0  0  0
   34.7047   32.2066   53.2824 O   0  0  0  0  0  0  0  0  0  0  0  0
   33.8879   33.0447   53.9280 C   0  0  0  0  0  0  0  0  0  0  0  0
   33.0692   34.1402   53.2950 C   0  0  0  0  0  0  0  0  0  0  0  0
   32.4742   33.3056   60.0304 S   0  0  0  0  0  0  0  0  0  0  0  0
   31.7466   34.7759   60.6564 C   0  0  0  0  0  0  0  0  0  0  0  0
   31.9048   35.7883   59.7964 C   0  0  0  0  0  0  0  0  0  0  0  0
   31.3816   37.1934   60.0484 C   0  0  0  0  0  0  0  0  0  0  0  0
   30.3320   37.1363   61.1605 C   0  0  0  0  0  0  0  0  0  0  0  0
   30.9069   36.3708   62.3560 C   0  0  0  0  0  0  0  0  0  0  0  0
   31.0296   34.8897   61.9881 C   0  0  0  0  0  0  0  0  0  0  0  0
   32.7963   39.9253   57.4013 H   0  0  0  0  0  0  0  0  0  0  0  0
   34.2517   38.9430   57.1092 H   0  0  0  0  0  0  0  0  0  0  0  0
   33.6250   40.0082   55.8282 H   0  0  0  0  0  0  0  0  0  0  0  0
   33.0283   37.6418   55.3892 H   0  0  0  0  0  0  0  0  0  0  0  0
   31.5729   38.6240   55.6811 H   0  0  0  0  0  0  0  0  0  0  0  0
   34.5614   33.0473   57.7648 H   0  0  0  0  0  0  0  0  0  0  0  0
   35.1356   31.0950   56.2877 H   0  0  0  0  0  0  0  0  0  0  0  0
   35.9927   30.5797   53.8680 H   0  0  0  0  0  0  0  0  0  0  0  0
   33.6500   35.0623   53.2743 H   0  0  0  0  0  0  0  0  0  0  0  0
   32.8049   33.8543   52.2769 H   0  0  0  0  0  0  0  0  0  0  0  0
   32.1602   34.2964   53.8761 H   0  0  0  0  0  0  0  0  0  0  0  0
   32.2039   37.8399   60.3548 H   0  0  0  0  0  0  0  0  0  0  0  0
   30.9276   37.5831   59.1372 H   0  0  0  0  0  0  0  0  0  0  0  0
   29.4414   36.6252   60.7949 H   0  0  0  0  0  0  0  0  0  0  0  0
   30.0714   38.1492   61.4677 H   0  0  0  0  0  0  0  0  0  0  0  0
   30.2420   36.4799   63.2128 H   0  0  0  0  0  0  0  0  0  0  0  0
   31.8912   36.7674   62.6054 H   0  0  0  0  0  0  0  0  0  0  0  0
   30.0357   34.4497   61.9069 H   0  0  0  0  0  0  0  0  0  0  0  0
   31.6007   34.3683   62.7565 H   0  0  0  0  0  0  0  0  0  0  0  0
  1  2  1  0  0  0  0
  1 24  1  0  0  0  0
  1 25  1  0  0  0  0
  1 26  1  0  0  0  0
  2  3  1  0  0  0  0
  2 27  1  0  0  0  0
  2 28  1  0  0  0  0
  3  4  1  0  0  0  0
  4  5  2  0  0  0  0
  4  6  1  0  0  0  0
  6 19  1  0  0  0  0
  6  7  2  0  0  0  0
  7  8  1  0  0  0  0
  7 17  1  0  0  0  0
  8  9  1  0  0  0  0
  8 29  1  0  0  0  0
  9 10  2  0  0  0  0
  9 11  1  0  0  0  0
 11 15  2  0  0  0  0
 11 12  1  0  0  0  0
 12 13  2  0  0  0  0
 12 30  1  0  0  0  0
 13 14  1  0  0  0  0
 13 31  1  0  0  0  0
 14 15  1  0  0  0  0
 15 16  1  0  0  0  0
 16 32  1  0  0  0  0
 16 33  1  0  0  0  0
 16 34  1  0  0  0  0
 17 18  1  0  0  0  0
 18 23  1  0  0  0  0
 18 19  2  0  0  0  0
 19 20  1  0  0  0  0
 20 21  1  0  0  0  0
 20 35  1  0  0  0  0
 20 36  1  0  0  0  0
 21 22  1  0  0  0  0
 21 37  1  0  0  0  0
 21 38  1  0  0  0  0
 22 23  1  0  0  0  0
 22 39  1  0  0  0  0
 22 40  1  0  0  0  0
 23 41  1  0  0  0  0
 23 42  1  0  0  0  0
M  END
$$$$
