ZINC000000033801      none
 OpenBabel11202420153D

 32 34  0  0  0  0  0  0  0  0999 V2000
   35.1033   39.9304   53.6120 O   0  0  0  0  0  0  0  0  0  0  0  0
   34.6746   38.9624   54.2142 C   0  0  0  0  0  0  0  0  0  0  0  0
   34.5760   37.7252   53.5450 C   0  0  0  0  0  0  0  0  0  0  0  0
   34.0994   36.6369   54.2036 C   0  0  0  0  0  0  0  0  0  0  0  0
   33.7017   36.7950   55.6040 C   0  0  0  0  0  0  0  0  0  0  0  0
   33.2037   35.7124   56.3383 C   0  0  0  0  0  0  0  0  0  0  0  0
   32.8408   35.8870   57.6421 C   0  0  0  0  0  0  0  0  0  0  0  0
   32.9624   37.1365   58.2475 C   0  0  0  0  0  0  0  0  0  0  0  0
   32.5963   37.2943   59.5451 O   0  0  0  0  0  0  0  0  0  0  0  0
   32.1107   38.5819   59.9302 C   0  0  0  0  0  0  0  0  0  0  0  0
   31.1037   38.4267   61.0716 C   0  0  0  0  0  0  0  0  0  0  0  0
   31.7582   37.7890   62.2166 N   0  0  0  0  0  0  0  0  0  0  0  0
   32.5692   36.7173   62.1871 C   0  0  0  0  0  0  0  0  0  0  0  0
   32.9504   36.4627   63.4125 N   0  0  0  0  0  0  0  0  0  0  0  0
   32.4019   37.3433   64.2486 C   0  0  0  0  0  0  0  0  0  0  0  0
   32.6003   37.3758   65.7152 N   0  0  0  0  0  0  0  0  0  0  0  0
   33.3165   36.5493   66.2513 O   0  0  0  0  0  0  0  0  0  0  0  0
   32.0475   38.2293   66.3856 O   0  0  0  0  0  0  0  0  0  0  0  0
   31.6608   38.1741   63.5638 N   0  0  0  0  0  0  0  0  0  0  0  0
   33.4484   38.2199   57.5342 C   0  0  0  0  0  0  0  0  0  0  0  0
   33.8272   38.0589   56.2099 C   0  0  0  0  0  0  0  0  0  0  0  0
   34.3083   39.1006   55.4981 O   0  0  0  0  0  0  0  0  0  0  0  0
   34.8788   37.6430   52.5115 H   0  0  0  0  0  0  0  0  0  0  0  0
   34.0166   35.6810   53.7080 H   0  0  0  0  0  0  0  0  0  0  0  0
   33.1073   34.7418   55.8745 H   0  0  0  0  0  0  0  0  0  0  0  0
   32.4566   35.0516   58.2087 H   0  0  0  0  0  0  0  0  0  0  0  0
   31.6238   39.0563   59.0781 H   0  0  0  0  0  0  0  0  0  0  0  0
   32.9445   39.2001   60.2627 H   0  0  0  0  0  0  0  0  0  0  0  0
   30.2699   37.8085   60.7390 H   0  0  0  0  0  0  0  0  0  0  0  0
   30.7332   39.4089   61.3654 H   0  0  0  0  0  0  0  0  0  0  0  0
   32.8593   36.1656   61.3051 H   0  0  0  0  0  0  0  0  0  0  0  0
   33.5354   39.1861   58.0089 H   0  0  0  0  0  0  0  0  0  0  0  0
  1  2  2  0  0  0  0
  2 22  1  0  0  0  0
  2  3  1  0  0  0  0
  3  4  2  0  0  0  0
  3 23  1  0  0  0  0
  4  5  1  0  0  0  0
  4 24  1  0  0  0  0
  5 21  2  0  0  0  0
  5  6  1  0  0  0  0
  6  7  2  0  0  0  0
  6 25  1  0  0  0  0
  7  8  1  0  0  0  0
  7 26  1  0  0  0  0
  8  9  1  0  0  0  0
  8 20  2  0  0  0  0
  9 10  1  0  0  0  0
 10 11  1  0  0  0  0
 10 27  1  0  0  0  0
 10 28  1  0  0  0  0
 11 12  1  0  0  0  0
 11 29  1  0  0  0  0
 11 30  1  0  0  0  0
 12 19  1  0  0  0  0
 12 13  1  0  0  0  0
 13 14  2  0  0  0  0
 13 31  1  0  0  0  0
 14 15  1  0  0  0  0
 15 16  1  0  0  0  0
 15 19  2  0  0  0  0
 16 17  2  0  0  0  0
 16 18  2  0  0  0  0
 20 21  1  0  0  0  0
 20 32  1  0  0  0  0
 21 22  1  0  0  0  0
M  END
$$$$
