ZINC000000050640      none
 OpenBabel11202420153D

 21 22  0  0  0  0  0  0  0  0999 V2000
   33.2435   32.7827   55.1276 C   0  0  0  0  0  0  0  0  0  0  0  0
   34.0460   33.9776   55.5741 C   0  0  0  0  0  0  0  0  0  0  0  0
   35.0187   33.8247   56.2731 O   0  0  0  0  0  0  0  0  0  0  0  0
   33.6344   35.3634   55.1483 C   0  0  0  0  0  0  0  0  0  0  0  0
   33.3406   36.1974   56.3687 C   0  0  0  0  0  0  0  0  0  0  0  0
   32.8562   35.5965   57.5372 C   0  0  0  0  0  0  0  0  0  0  0  0
   32.6051   36.3240   58.6016 N   0  0  0  0  0  0  0  0  0  0  0  0
   32.7958   37.6485   58.5885 C   0  0  0  0  0  0  0  0  0  0  0  0
   32.6179   38.5899   59.5085 N   0  0  0  0  0  0  0  0  0  0  0  0
   32.9522   39.7725   59.0102 C   0  0  0  0  0  0  0  0  0  0  0  0
   33.3511   39.6308   57.7686 N   0  0  0  0  0  0  0  0  0  0  0  0
   33.2626   38.2665   57.4625 N   0  0  0  0  0  0  0  0  0  0  0  0
   33.5372   37.5407   56.3460 C   0  0  0  0  0  0  0  0  0  0  0  0
   33.2404   32.7336   54.0387 H   0  0  0  0  0  0  0  0  0  0  0  0
   33.6901   31.8738   55.5310 H   0  0  0  0  0  0  0  0  0  0  0  0
   32.2199   32.8765   55.4900 H   0  0  0  0  0  0  0  0  0  0  0  0
   32.7413   35.3021   54.5264 H   0  0  0  0  0  0  0  0  0  0  0  0
   34.4424   35.8237   54.5796 H   0  0  0  0  0  0  0  0  0  0  0  0
   32.6924   34.5294   57.5647 H   0  0  0  0  0  0  0  0  0  0  0  0
   32.9033   40.7095   59.5451 H   0  0  0  0  0  0  0  0  0  0  0  0
   33.9065   38.0254   55.4544 H   0  0  0  0  0  0  0  0  0  0  0  0
  1  2  1  0  0  0  0
  1 14  1  0  0  0  0
  1 15  1  0  0  0  0
  1 16  1  0  0  0  0
  2  3  2  0  0  0  0
  2  4  1  0  0  0  0
  4  5  1  0  0  0  0
  4 17  1  0  0  0  0
  4 18  1  0  0  0  0
  5 13  2  0  0  0  0
  5  6  1  0  0  0  0
  6  7  2  0  0  0  0
  6 19  1  0  0  0  0
  7  8  1  0  0  0  0
  8 12  1  0  0  0  0
  8  9  2  0  0  0  0
  9 10  1  0  0  0  0
 10 11  2  0  0  0  0
 10 20  1  0  0  0  0
 11 12  1  0  0  0  0
 12 13  1  0  0  0  0
 13 21  1  0  0  0  0
M  END
$$$$
