ZINC000000004590      none
 OpenBabel11202420153D

 30 32  0  0  0  0  0  0  0  0999 V2000
   32.2297   34.6443   58.2601 O   0  0  0  0  0  0  0  0  0  0  0  0
   32.2417   35.7610   58.7528 C   0  0  0  0  0  0  0  0  0  0  0  0
   31.8543   35.9751   60.0896 C   0  0  0  0  0  0  0  0  0  0  0  0
   31.8808   37.2368   60.6035 C   0  0  0  0  0  0  0  0  0  0  0  0
   31.5000   37.4256   61.9069 N   0  0  0  0  0  0  0  0  0  0  0  0
   32.4090   36.7275   62.8277 C   0  0  0  0  0  0  0  0  0  0  0  0
   31.9835   37.0132   64.2704 C   0  0  0  0  0  0  0  0  0  0  0  0
   30.6215   36.6145   64.4483 O   0  0  0  0  0  0  0  0  0  0  0  0
   29.7086   37.2754   63.5678 C   0  0  0  0  0  0  0  0  0  0  0  0
   30.1111   36.9924   62.1179 C   0  0  0  0  0  0  0  0  0  0  0  0
   32.2595   38.3009   59.8827 O   0  0  0  0  0  0  0  0  0  0  0  0
   32.6535   38.1964   58.5957 C   0  0  0  0  0  0  0  0  0  0  0  0
   33.0458   39.3188   57.8772 C   0  0  0  0  0  0  0  0  0  0  0  0
   33.4389   39.1907   56.5618 C   0  0  0  0  0  0  0  0  0  0  0  0
   33.4474   37.9491   55.9439 C   0  0  0  0  0  0  0  0  0  0  0  0
   33.0620   36.8239   56.6401 C   0  0  0  0  0  0  0  0  0  0  0  0
   32.6629   36.9411   57.9698 C   0  0  0  0  0  0  0  0  0  0  0  0
   31.5385   35.1447   60.7037 H   0  0  0  0  0  0  0  0  0  0  0  0
   33.4278   37.0821   62.6718 H   0  0  0  0  0  0  0  0  0  0  0  0
   32.3642   35.6547   62.6408 H   0  0  0  0  0  0  0  0  0  0  0  0
   32.6193   36.4522   64.9553 H   0  0  0  0  0  0  0  0  0  0  0  0
   32.0802   38.0797   64.4740 H   0  0  0  0  0  0  0  0  0  0  0  0
   29.7392   38.3495   63.7508 H   0  0  0  0  0  0  0  0  0  0  0  0
   28.6989   36.9047   63.7441 H   0  0  0  0  0  0  0  0  0  0  0  0
   29.4527   37.5402   61.4439 H   0  0  0  0  0  0  0  0  0  0  0  0
   30.0289   35.9238   61.9194 H   0  0  0  0  0  0  0  0  0  0  0  0
   33.0430   40.2906   58.3484 H   0  0  0  0  0  0  0  0  0  0  0  0
   33.7436   40.0659   56.0072 H   0  0  0  0  0  0  0  0  0  0  0  0
   33.7577   37.8636   54.9130 H   0  0  0  0  0  0  0  0  0  0  0  0
   33.0698   35.8574   56.1582 H   0  0  0  0  0  0  0  0  0  0  0  0
  1  2  2  0  0  0  0
  2 17  1  0  0  0  0
  2  3  1  0  0  0  0
  3  4  2  0  0  0  0
  3 18  1  0  0  0  0
  4  5  1  0  0  0  0
  4 11  1  0  0  0  0
  5 10  1  0  0  0  0
  5  6  1  0  0  0  0
  6  7  1  0  0  0  0
  6 19  1  0  0  0  0
  6 20  1  0  0  0  0
  7  8  1  0  0  0  0
  7 21  1  0  0  0  0
  7 22  1  0  0  0  0
  8  9  1  0  0  0  0
  9 10  1  0  0  0  0
  9 23  1  0  0  0  0
  9 24  1  0  0  0  0
 10 25  1  0  0  0  0
 10 26  1  0  0  0  0
 11 12  1  0  0  0  0
 12 17  2  0  0  0  0
 12 13  1  0  0  0  0
 13 14  2  0  0  0  0
 13 27  1  0  0  0  0
 14 15  1  0  0  0  0
 14 28  1  0  0  0  0
 15 16  2  0  0  0  0
 15 29  1  0  0  0  0
 16 17  1  0  0  0  0
 16 30  1  0  0  0  0
M  END
$$$$
