ZINC000000011550      none
 OpenBabel11202420153D

 40 42  0  0  0  0  0  0  0  0999 V2000
   27.7359   41.3322   68.7795 C   0  0  0  0  0  0  0  0  0  0  0  0
   28.2527   40.5792   67.5807 C   0  0  0  0  0  0  0  0  0  0  0  0
   29.3540   39.7520   67.7092 C   0  0  0  0  0  0  0  0  0  0  0  0
   29.8321   39.0598   66.6156 C   0  0  0  0  0  0  0  0  0  0  0  0
   29.2020   39.1956   65.3780 C   0  0  0  0  0  0  0  0  0  0  0  0
   29.7091   38.4565   64.2015 C   0  0  0  0  0  0  0  0  0  0  0  0
   30.1392   39.0074   63.0932 N   0  0  0  0  0  0  0  0  0  0  0  0
   30.5326   38.0400   62.2311 C   0  0  0  0  0  0  0  0  0  0  0  0
   31.0541   38.0572   60.9317 C   0  0  0  0  0  0  0  0  0  0  0  0
   31.3444   36.8489   60.3296 C   0  0  0  0  0  0  0  0  0  0  0  0
   31.1089   35.6668   61.0178 C   0  0  0  0  0  0  0  0  0  0  0  0
   31.4765   34.1511   60.2553 Cl  0  0  0  0  0  0  0  0  0  0  0  0
   30.6121   35.6716   62.2386 N   0  0  0  0  0  0  0  0  0  0  0  0
   30.3161   36.8011   62.8623 C   0  0  0  0  0  0  0  0  0  0  0  0
   29.7991   37.0930   64.1062 N   0  0  0  0  0  0  0  0  0  0  0  0
   29.4170   36.1240   65.1364 C   0  0  0  0  0  0  0  0  0  0  0  0
   28.6303   35.0041   64.5056 C   0  0  0  0  0  0  0  0  0  0  0  0
   28.4106   35.0143   63.3130 O   0  0  0  0  0  0  0  0  0  0  0  0
   28.1709   33.9912   65.2667 N   0  0  0  0  0  0  0  0  0  0  0  0
   27.4060   32.9025   64.6537 C   0  0  0  0  0  0  0  0  0  0  0  0
   28.4365   33.9788   66.7075 C   0  0  0  0  0  0  0  0  0  0  0  0
   28.0951   40.0361   65.2537 C   0  0  0  0  0  0  0  0  0  0  0  0
   27.6232   40.7179   66.3563 C   0  0  0  0  0  0  0  0  0  0  0  0
   28.2299   42.3019   68.8400 H   0  0  0  0  0  0  0  0  0  0  0  0
   26.6602   41.4781   68.6809 H   0  0  0  0  0  0  0  0  0  0  0  0
   27.9437   40.7614   69.6844 H   0  0  0  0  0  0  0  0  0  0  0  0
   29.8409   39.6481   68.6677 H   0  0  0  0  0  0  0  0  0  0  0  0
   30.6920   38.4146   66.7173 H   0  0  0  0  0  0  0  0  0  0  0  0
   31.2287   38.9900   60.4164 H   0  0  0  0  0  0  0  0  0  0  0  0
   31.7516   36.8238   59.3296 H   0  0  0  0  0  0  0  0  0  0  0  0
   30.3139   35.7191   65.6049 H   0  0  0  0  0  0  0  0  0  0  0  0
   28.8046   36.6181   65.8907 H   0  0  0  0  0  0  0  0  0  0  0  0
   28.0877   32.1134   64.3363 H   0  0  0  0  0  0  0  0  0  0  0  0
   26.6986   32.5016   65.3796 H   0  0  0  0  0  0  0  0  0  0  0  0
   26.8626   33.2827   63.7886 H   0  0  0  0  0  0  0  0  0  0  0  0
   27.6311   34.4950   67.2299 H   0  0  0  0  0  0  0  0  0  0  0  0
   28.4948   32.9481   67.0573 H   0  0  0  0  0  0  0  0  0  0  0  0
   29.3815   34.4840   66.9070 H   0  0  0  0  0  0  0  0  0  0  0  0
   27.6059   40.1489   64.2975 H   0  0  0  0  0  0  0  0  0  0  0  0
   26.7637   41.3650   66.2626 H   0  0  0  0  0  0  0  0  0  0  0  0
  1  2  1  0  0  0  0
  1 24  1  0  0  0  0
  1 25  1  0  0  0  0
  1 26  1  0  0  0  0
  2 23  2  0  0  0  0
  2  3  1  0  0  0  0
  3  4  2  0  0  0  0
  3 27  1  0  0  0  0
  4  5  1  0  0  0  0
  4 28  1  0  0  0  0
  5  6  1  0  0  0  0
  5 22  2  0  0  0  0
  6 15  1  0  0  0  0
  6  7  2  0  0  0  0
  7  8  1  0  0  0  0
  8 14  2  0  0  0  0
  8  9  1  0  0  0  0
  9 10  2  0  0  0  0
  9 29  1  0  0  0  0
 10 11  1  0  0  0  0
 10 30  1  0  0  0  0
 11 12  1  0  0  0  0
 11 13  2  0  0  0  0
 13 14  1  0  0  0  0
 14 15  1  0  0  0  0
 15 16  1  0  0  0  0
 16 17  1  0  0  0  0
 16 31  1  0  0  0  0
 16 32  1  0  0  0  0
 17 18  2  0  0  0  0
 17 19  1  0  0  0  0
 19 20  1  0  0  0  0
 19 21  1  0  0  0  0
 20 33  1  0  0  0  0
 20 34  1  0  0  0  0
 20 35  1  0  0  0  0
 21 36  1  0  0  0  0
 21 37  1  0  0  0  0
 21 38  1  0  0  0  0
 22 23  1  0  0  0  0
 22 39  1  0  0  0  0
 23 40  1  0  0  0  0
M  END
$$$$
