ZINC000000041786      none
 OpenBabel11202420153D

 34 36  0  0  1  0  0  0  0  0999 V2000
   31.6748   37.1532   65.6165 O   0  0  0  0  0  0  0  0  0  0  0  0
   30.6457   37.9268   65.1814 C   0  0  0  0  0  0  0  0  0  0  0  0
   30.1812   38.9717   65.9673 C   0  0  0  0  0  0  0  0  0  0  0  0
   29.1308   39.7523   65.5257 C   0  0  0  0  0  0  0  0  0  0  0  0
   28.5465   39.4974   64.2986 C   0  0  0  0  0  0  0  0  0  0  0  0
   29.0115   38.4608   63.5109 C   0  0  0  0  0  0  0  0  0  0  0  0
   30.0614   37.6764   63.9485 C   0  0  0  0  0  0  0  0  0  0  0  0
   30.5671   36.5459   63.0899 C   0  0  1  0  0  0  0  0  0  0  0  0
   31.3885   36.0421   63.5994 H   0  0  0  0  0  0  0  0  0  0  0  0
   29.4789   35.5888   62.8499 N   0  0  0  0  0  0  0  0  0  0  0  0
   29.3107   34.7597   63.9224 N   0  0  0  0  0  0  0  0  0  0  0  0
   28.5022   34.9626   64.9905 C   0  0  0  0  0  0  0  0  0  0  0  0
   28.6355   33.9318   65.7798 N   0  0  0  0  0  0  0  0  0  0  0  0
   29.4821   33.1063   65.2745 N   0  0  0  0  0  0  0  0  0  0  0  0
   29.9228   33.5701   64.1368 C   0  0  0  0  0  0  0  0  0  0  0  0
   31.0537   37.0940   61.7731 C   0  0  0  0  0  0  0  0  0  0  0  0
   32.3725   37.4837   61.6317 C   0  0  0  0  0  0  0  0  0  0  0  0
   32.8193   37.9860   60.4241 C   0  0  0  0  0  0  0  0  0  0  0  0
   31.9465   38.0988   59.3568 C   0  0  0  0  0  0  0  0  0  0  0  0
   32.5574   38.7854   57.7041 Br  0  0  0  0  0  0  0  0  0  0  0  0
   30.6271   37.7088   59.4987 C   0  0  0  0  0  0  0  0  0  0  0  0
   30.1812   37.2066   60.7068 C   0  0  0  0  0  0  0  0  0  0  0  0
   32.0156   37.4045   66.4860 H   0  0  0  0  0  0  0  0  0  0  0  0
   30.6374   39.1714   66.9255 H   0  0  0  0  0  0  0  0  0  0  0  0
   28.7657   40.5627   66.1392 H   0  0  0  0  0  0  0  0  0  0  0  0
   27.7257   40.1094   63.9547 H   0  0  0  0  0  0  0  0  0  0  0  0
   28.5536   38.2637   62.5529 H   0  0  0  0  0  0  0  0  0  0  0  0
   29.6421   35.0599   62.0061 H   0  0  0  0  0  0  0  0  0  0  0  0
   27.8637   35.8179   65.1567 H   0  0  0  0  0  0  0  0  0  0  0  0
   30.6422   33.0941   63.4870 H   0  0  0  0  0  0  0  0  0  0  0  0
   33.0549   37.3914   62.4637 H   0  0  0  0  0  0  0  0  0  0  0  0
   33.8497   38.2900   60.3137 H   0  0  0  0  0  0  0  0  0  0  0  0
   29.9452   37.7971   58.6658 H   0  0  0  0  0  0  0  0  0  0  0  0
   29.1509   36.9021   60.8177 H   0  0  0  0  0  0  0  0  0  0  0  0
  1  2  1  0  0  0  0
  1 23  1  0  0  0  0
  2  7  2  0  0  0  0
  2  3  1  0  0  0  0
  3  4  2  0  0  0  0
  3 24  1  0  0  0  0
  4  5  1  0  0  0  0
  4 25  1  0  0  0  0
  5  6  2  0  0  0  0
  5 26  1  0  0  0  0
  6  7  1  0  0  0  0
  6 27  1  0  0  0  0
  7  8  1  0  0  0  0
  8  9  1  1  0  0  0
  8 10  1  0  0  0  0
  8 16  1  0  0  0  0
 10 11  1  0  0  0  0
 10 28  1  0  0  0  0
 11 15  1  0  0  0  0
 11 12  1  0  0  0  0
 12 13  2  0  0  0  0
 12 29  1  0  0  0  0
 13 14  1  0  0  0  0
 14 15  2  0  0  0  0
 15 30  1  0  0  0  0
 16 22  2  0  0  0  0
 16 17  1  0  0  0  0
 17 18  2  0  0  0  0
 17 31  1  0  0  0  0
 18 19  1  0  0  0  0
 18 32  1  0  0  0  0
 19 20  1  0  0  0  0
 19 21  2  0  0  0  0
 21 22  1  0  0  0  0
 21 33  1  0  0  0  0
 22 34  1  0  0  0  0
M  END
$$$$
