ZINC000000044447      none
 OpenBabel11202420153D

 41 44  0  0  1  0  0  0  0  0999 V2000
   31.1441   32.2838   63.3554 O   0  0  0  0  0  0  0  0  0  0  0  0
   31.1829   33.0578   62.4284 C   0  0  0  0  0  0  0  0  0  0  0  0
   32.1909   33.0544   61.2932 C   0  0  0  0  0  0  0  0  0  0  0  0
   32.3026   34.5464   60.9040 C   0  0  1  0  0  0  0  0  0  0  0  0
   33.2117   34.9872   61.3131 H   0  0  0  0  0  0  0  0  0  0  0  0
   32.2599   34.7113   59.4067 C   0  0  0  0  0  0  0  0  0  0  0  0
   32.8466   35.6547   58.7550 N   0  0  0  0  0  0  0  0  0  0  0  0
   32.7089   35.6546   57.4369 C   0  0  0  0  0  0  0  0  0  0  0  0
   33.3286   36.6786   56.5605 C   0  0  0  0  0  0  0  0  0  0  0  0
   33.7071   36.3500   55.2602 C   0  0  0  0  0  0  0  0  0  0  0  0
   34.2792   37.3079   54.4479 C   0  0  0  0  0  0  0  0  0  0  0  0
   34.4859   38.5896   54.9254 C   0  0  0  0  0  0  0  0  0  0  0  0
   34.1169   38.9200   56.2170 C   0  0  0  0  0  0  0  0  0  0  0  0
   33.5396   37.9714   57.0365 C   0  0  0  0  0  0  0  0  0  0  0  0
   31.9560   34.6415   56.9626 C   0  0  0  0  0  0  0  0  0  0  0  0
   31.4268   33.6724   58.3354 S   0  0  0  0  0  0  0  0  0  0  0  0
   31.0541   35.1690   61.5564 C   0  0  0  0  0  0  0  0  0  0  0  0
   30.1764   35.8085   60.4827 C   0  0  0  0  0  0  0  0  0  0  0  0
   28.9361   36.4229   61.1358 C   0  0  0  0  0  0  0  0  0  0  0  0
   29.3676   37.4804   62.1539 C   0  0  0  0  0  0  0  0  0  0  0  0
   30.2342   36.8280   63.2329 C   0  0  0  0  0  0  0  0  0  0  0  0
   31.4781   36.2148   62.5853 C   0  0  0  0  0  0  0  0  0  0  0  0
   30.3401   34.0840   62.2083 O   0  0  0  0  0  0  0  0  0  0  0  0
   31.8213   32.4655   60.4537 H   0  0  0  0  0  0  0  0  0  0  0  0
   33.1532   32.6741   61.6357 H   0  0  0  0  0  0  0  0  0  0  0  0
   33.5500   35.3485   54.8877 H   0  0  0  0  0  0  0  0  0  0  0  0
   34.5692   37.0555   53.4386 H   0  0  0  0  0  0  0  0  0  0  0  0
   34.9373   39.3350   54.2876 H   0  0  0  0  0  0  0  0  0  0  0  0
   34.2807   39.9222   56.5846 H   0  0  0  0  0  0  0  0  0  0  0  0
   33.2516   38.2305   58.0447 H   0  0  0  0  0  0  0  0  0  0  0  0
   31.7199   34.4566   55.9251 H   0  0  0  0  0  0  0  0  0  0  0  0
   30.7401   36.5873   59.9690 H   0  0  0  0  0  0  0  0  0  0  0  0
   29.8697   35.0484   59.7640 H   0  0  0  0  0  0  0  0  0  0  0  0
   28.3672   35.6425   61.6413 H   0  0  0  0  0  0  0  0  0  0  0  0
   28.3147   36.8877   60.3703 H   0  0  0  0  0  0  0  0  0  0  0  0
   28.4843   37.9221   62.6152 H   0  0  0  0  0  0  0  0  0  0  0  0
   29.9406   38.2581   61.6490 H   0  0  0  0  0  0  0  0  0  0  0  0
   29.6631   36.0467   63.7345 H   0  0  0  0  0  0  0  0  0  0  0  0
   30.5369   37.5809   63.9605 H   0  0  0  0  0  0  0  0  0  0  0  0
   32.0913   35.7419   63.3524 H   0  0  0  0  0  0  0  0  0  0  0  0
   32.0538   36.9977   62.0915 H   0  0  0  0  0  0  0  0  0  0  0  0
  1  2  2  0  0  0  0
  2 23  1  0  0  0  0
  2  3  1  0  0  0  0
  3  4  1  0  0  0  0
  3 24  1  0  0  0  0
  3 25  1  0  0  0  0
  4  5  1  1  0  0  0
  4  6  1  0  0  0  0
  4 17  1  0  0  0  0
  6 16  1  0  0  0  0
  6  7  2  0  0  0  0
  7  8  1  0  0  0  0
  8  9  1  0  0  0  0
  8 15  2  0  0  0  0
  9 14  2  0  0  0  0
  9 10  1  0  0  0  0
 10 11  2  0  0  0  0
 10 26  1  0  0  0  0
 11 12  1  0  0  0  0
 11 27  1  0  0  0  0
 12 13  2  0  0  0  0
 12 28  1  0  0  0  0
 13 14  1  0  0  0  0
 13 29  1  0  0  0  0
 14 30  1  0  0  0  0
 15 16  1  0  0  0  0
 15 31  1  0  0  0  0
 17 22  1  0  0  0  0
 17 18  1  0  0  0  0
 17 23  1  0  0  0  0
 18 19  1  0  0  0  0
 18 32  1  0  0  0  0
 18 33  1  0  0  0  0
 19 20  1  0  0  0  0
 19 34  1  0  0  0  0
 19 35  1  0  0  0  0
 20 21  1  0  0  0  0
 20 36  1  0  0  0  0
 20 37  1  0  0  0  0
 21 22  1  0  0  0  0
 21 38  1  0  0  0  0
 21 39  1  0  0  0  0
 22 40  1  0  0  0  0
 22 41  1  0  0  0  0
M  END
$$$$
