ZINC000000050943      none
 OpenBabel11202420153D

 28 28  0  0  0  0  0  0  0  0999 V2000
   31.7621   36.5852   61.0819 C   0  0  0  0  0  0  0  0  0  0  0  0
   32.1540   36.0772   59.7184 C   0  0  0  0  0  0  0  0  0  0  0  0
   32.5893   36.9623   58.7499 C   0  0  0  0  0  0  0  0  0  0  0  0
   32.9494   36.4963   57.4993 C   0  0  0  0  0  0  0  0  0  0  0  0
   33.4240   37.4613   56.4435 C   0  0  0  0  0  0  0  0  0  0  0  0
   32.8735   35.1453   57.2169 C   0  0  0  0  0  0  0  0  0  0  0  0
   33.3319   34.5514   55.6226 S   0  0  0  0  0  0  0  0  0  0  0  0
   33.1216   32.9088   55.6324 N   0  0  0  0  0  0  0  0  0  0  0  0
   32.3758   35.0728   54.7099 O   0  0  0  0  0  0  0  0  0  0  0  0
   34.7294   34.7763   55.4971 O   0  0  0  0  0  0  0  0  0  0  0  0
   32.4378   34.2602   58.1853 C   0  0  0  0  0  0  0  0  0  0  0  0
   32.0727   34.7268   59.4342 C   0  0  0  0  0  0  0  0  0  0  0  0
   31.5103   33.5996   60.6661 S   0  0  0  0  0  0  0  0  0  0  0  0
   32.8415   33.0910   61.5095 N   0  0  0  0  0  0  0  0  0  0  0  0
   30.7247   34.3582   61.5754 O   0  0  0  0  0  0  0  0  0  0  0  0
   31.0156   32.4619   59.9732 O   0  0  0  0  0  0  0  0  0  0  0  0
   30.6998   36.8296   61.0871 H   0  0  0  0  0  0  0  0  0  0  0  0
   31.9614   35.8155   61.8276 H   0  0  0  0  0  0  0  0  0  0  0  0
   32.3413   37.4780   61.3175 H   0  0  0  0  0  0  0  0  0  0  0  0
   32.6487   38.0179   58.9705 H   0  0  0  0  0  0  0  0  0  0  0  0
   32.5707   37.8158   55.8653 H   0  0  0  0  0  0  0  0  0  0  0  0
   33.9169   38.3083   56.9206 H   0  0  0  0  0  0  0  0  0  0  0  0
   34.1278   36.9575   55.7809 H   0  0  0  0  0  0  0  0  0  0  0  0
   32.8913   32.4444   54.8124 H   0  0  0  0  0  0  0  0  0  0  0  0
   33.2289   32.4110   56.4579 H   0  0  0  0  0  0  0  0  0  0  0  0
   32.3782   33.2047   57.9645 H   0  0  0  0  0  0  0  0  0  0  0  0
   33.7214   33.4247   61.2744 H   0  0  0  0  0  0  0  0  0  0  0  0
   32.7413   32.4594   62.2390 H   0  0  0  0  0  0  0  0  0  0  0  0
  1  2  1  0  0  0  0
  1 17  1  0  0  0  0
  1 18  1  0  0  0  0
  1 19  1  0  0  0  0
  2 12  2  0  0  0  0
  2  3  1  0  0  0  0
  3  4  2  0  0  0  0
  3 20  1  0  0  0  0
  4  5  1  0  0  0  0
  4  6  1  0  0  0  0
  5 21  1  0  0  0  0
  5 22  1  0  0  0  0
  5 23  1  0  0  0  0
  6  7  1  0  0  0  0
  6 11  2  0  0  0  0
  7  8  1  0  0  0  0
  7  9  2  0  0  0  0
  7 10  2  0  0  0  0
  8 24  1  0  0  0  0
  8 25  1  0  0  0  0
 11 12  1  0  0  0  0
 11 26  1  0  0  0  0
 12 13  1  0  0  0  0
 13 14  1  0  0  0  0
 13 15  2  0  0  0  0
 13 16  2  0  0  0  0
 14 27  1  0  0  0  0
 14 28  1  0  0  0  0
M  END
$$$$
