ZINC000000001051      none
 OpenBabel11202420153D

 29 31  0  0  0  0  0  0  0  0999 V2000
   31.3796   33.5025   68.3330 O   0  0  0  0  0  0  0  0  0  0  0  0
   31.2464   34.6734   68.0466 C   0  0  0  0  0  0  0  0  0  0  0  0
   29.8783   35.1909   67.6951 C   0  0  0  0  0  0  0  0  0  0  0  0
   29.8893   35.6547   66.3083 N   0  0  0  0  0  0  0  0  0  0  0  0
   30.6212   36.6400   65.9280 C   0  0  0  0  0  0  0  0  0  0  0  0
   30.5630   37.0255   64.4970 C   0  0  0  0  0  0  0  0  0  0  0  0
   30.9179   36.1005   63.5175 C   0  0  0  0  0  0  0  0  0  0  0  0
   30.8532   36.4732   62.1851 C   0  0  0  0  0  0  0  0  0  0  0  0
   30.4456   37.7628   61.8778 C   0  0  0  0  0  0  0  0  0  0  0  0
   30.1071   38.6299   62.9025 C   0  0  0  0  0  0  0  0  0  0  0  0
   30.1730   38.2481   64.1604 N   0  0  0  0  0  0  0  0  0  0  0  0
   31.5166   37.4107   66.8044 C   0  0  0  0  0  0  0  0  0  0  0  0
   31.5722   38.8006   66.6173 C   0  0  0  0  0  0  0  0  0  0  0  0
   32.3874   39.5800   67.4062 C   0  0  0  0  0  0  0  0  0  0  0  0
   32.4504   41.4512   67.1413 Br  0  0  0  0  0  0  0  0  0  0  0  0
   33.1624   38.9936   68.3943 C   0  0  0  0  0  0  0  0  0  0  0  0
   33.1120   37.6410   68.5916 C   0  0  0  0  0  0  0  0  0  0  0  0
   32.2960   36.8310   67.7991 C   0  0  0  0  0  0  0  0  0  0  0  0
   32.3147   35.4677   68.0510 N   0  0  0  0  0  0  0  0  0  0  0  0
   29.6206   36.0193   68.3550 H   0  0  0  0  0  0  0  0  0  0  0  0
   29.1457   34.3914   67.8067 H   0  0  0  0  0  0  0  0  0  0  0  0
   31.2350   35.1056   63.7931 H   0  0  0  0  0  0  0  0  0  0  0  0
   31.1177   35.7767   61.4033 H   0  0  0  0  0  0  0  0  0  0  0  0
   30.3884   38.0860   60.8488 H   0  0  0  0  0  0  0  0  0  0  0  0
   29.7850   39.6334   62.6666 H   0  0  0  0  0  0  0  0  0  0  0  0
   30.9703   39.2623   65.8485 H   0  0  0  0  0  0  0  0  0  0  0  0
   33.8007   39.6065   69.0135 H   0  0  0  0  0  0  0  0  0  0  0  0
   33.7198   37.1940   69.3644 H   0  0  0  0  0  0  0  0  0  0  0  0
   33.1734   35.0610   68.2462 H   0  0  0  0  0  0  0  0  0  0  0  0
  1  2  2  0  0  0  0
  2 19  1  0  0  0  0
  2  3  1  0  0  0  0
  3  4  1  0  0  0  0
  3 20  1  0  0  0  0
  3 21  1  0  0  0  0
  4  5  2  0  0  0  0
  5  6  1  0  0  0  0
  5 12  1  0  0  0  0
  6 11  2  0  0  0  0
  6  7  1  0  0  0  0
  7  8  2  0  0  0  0
  7 22  1  0  0  0  0
  8  9  1  0  0  0  0
  8 23  1  0  0  0  0
  9 10  2  0  0  0  0
  9 24  1  0  0  0  0
 10 11  1  0  0  0  0
 10 25  1  0  0  0  0
 12 18  2  0  0  0  0
 12 13  1  0  0  0  0
 13 14  2  0  0  0  0
 13 26  1  0  0  0  0
 14 15  1  0  0  0  0
 14 16  1  0  0  0  0
 16 17  2  0  0  0  0
 16 27  1  0  0  0  0
 17 18  1  0  0  0  0
 17 28  1  0  0  0  0
 18 19  1  0  0  0  0
 19 29  1  0  0  0  0
M  END
$$$$
