ZINC000000030602      none
 OpenBabel11202420163D

 28 28  0  0  0  0  0  0  0  0999 V2000
   35.1674   34.5728   54.5829 C   0  0  0  0  0  0  0  0  0  0  0  0
   34.1856   35.6201   54.2906 N   0  0  0  0  0  0  0  0  0  0  0  0
   34.5054   36.6753   53.3258 C   0  0  0  0  0  0  0  0  0  0  0  0
   32.7144   35.6114   55.0506 S   0  0  0  0  0  0  0  0  0  0  0  0
   32.1551   34.3242   54.8276 O   0  0  0  0  0  0  0  0  0  0  0  0
   32.0624   36.8174   54.6768 O   0  0  0  0  0  0  0  0  0  0  0  0
   33.0024   35.7205   56.6777 N   0  0  0  0  0  0  0  0  0  0  0  0
   33.1768   34.5033   57.4740 C   0  0  0  0  0  0  0  0  0  0  0  0
   33.0791   36.9731   57.2909 C   0  0  0  0  0  0  0  0  0  0  0  0
   33.5327   38.0728   56.5735 C   0  0  0  0  0  0  0  0  0  0  0  0
   33.6069   39.3099   57.1827 C   0  0  0  0  0  0  0  0  0  0  0  0
   33.2303   39.4547   58.5054 C   0  0  0  0  0  0  0  0  0  0  0  0
   32.7837   38.3610   59.2241 C   0  0  0  0  0  0  0  0  0  0  0  0
   32.7016   37.1221   58.6194 C   0  0  0  0  0  0  0  0  0  0  0  0
   35.0227   33.7377   53.8976 H   0  0  0  0  0  0  0  0  0  0  0  0
   36.1735   34.9735   54.4602 H   0  0  0  0  0  0  0  0  0  0  0  0
   35.0362   34.2280   55.6087 H   0  0  0  0  0  0  0  0  0  0  0  0
   34.3954   37.6493   53.8027 H   0  0  0  0  0  0  0  0  0  0  0  0
   35.5322   36.5534   52.9812 H   0  0  0  0  0  0  0  0  0  0  0  0
   33.8266   36.6082   52.4758 H   0  0  0  0  0  0  0  0  0  0  0  0
   32.2089   34.1747   57.8523 H   0  0  0  0  0  0  0  0  0  0  0  0
   33.6082   33.7200   56.8505 H   0  0  0  0  0  0  0  0  0  0  0  0
   33.8434   34.7093   58.3115 H   0  0  0  0  0  0  0  0  0  0  0  0
   33.8266   37.9604   55.5403 H   0  0  0  0  0  0  0  0  0  0  0  0
   33.9591   40.1653   56.6254 H   0  0  0  0  0  0  0  0  0  0  0  0
   33.2893   40.4233   58.9794 H   0  0  0  0  0  0  0  0  0  0  0  0
   32.4949   38.4766   60.2583 H   0  0  0  0  0  0  0  0  0  0  0  0
   32.3485   36.2693   59.1800 H   0  0  0  0  0  0  0  0  0  0  0  0
  1  2  1  0  0  0  0
  1 15  1  0  0  0  0
  1 16  1  0  0  0  0
  1 17  1  0  0  0  0
  2  3  1  0  0  0  0
  2  4  1  0  0  0  0
  3 18  1  0  0  0  0
  3 19  1  0  0  0  0
  3 20  1  0  0  0  0
  4  5  2  0  0  0  0
  4  6  2  0  0  0  0
  4  7  1  0  0  0  0
  7  8  1  0  0  0  0
  7  9  1  0  0  0  0
  8 21  1  0  0  0  0
  8 22  1  0  0  0  0
  8 23  1  0  0  0  0
  9 14  2  0  0  0  0
  9 10  1  0  0  0  0
 10 11  2  0  0  0  0
 10 24  1  0  0  0  0
 11 12  1  0  0  0  0
 11 25  1  0  0  0  0
 12 13  2  0  0  0  0
 12 26  1  0  0  0  0
 13 14  1  0  0  0  0
 13 27  1  0  0  0  0
 14 28  1  0  0  0  0
M  END
$$$$
