ZINC000000053408      none
 OpenBabel11202420153D

 27 28  0  0  0  0  0  0  0  0999 V2000
   31.7489   37.2983   61.6692 N   0  0  0  0  0  0  0  0  0  0  0  0
   32.0312   36.8287   60.6740 C   0  0  0  0  0  0  0  0  0  0  0  0
   32.3870   36.2368   59.4196 C   0  0  0  0  0  0  0  0  0  0  0  0
   32.8449   37.0371   58.3719 C   0  0  0  0  0  0  0  0  0  0  0  0
   33.1875   36.4655   57.1648 C   0  0  0  0  0  0  0  0  0  0  0  0
   33.7564   37.4669   55.8660 Cl  0  0  0  0  0  0  0  0  0  0  0  0
   33.0800   35.0881   56.9821 C   0  0  0  0  0  0  0  0  0  0  0  0
   33.4294   34.5214   55.7582 N   0  0  0  0  0  0  0  0  0  0  0  0
   32.2642   33.8976   55.1147 C   0  0  0  0  0  0  0  0  0  0  0  0
   32.6787   33.3414   53.7497 C   0  0  0  0  0  0  0  0  0  0  0  0
   33.7587   32.4203   53.9240 O   0  0  0  0  0  0  0  0  0  0  0  0
   34.9104   32.9948   54.5476 C   0  0  0  0  0  0  0  0  0  0  0  0
   34.5185   33.5474   55.9205 C   0  0  0  0  0  0  0  0  0  0  0  0
   32.6266   34.2781   58.0144 C   0  0  0  0  0  0  0  0  0  0  0  0
   32.2771   34.8428   59.2378 C   0  0  0  0  0  0  0  0  0  0  0  0
   31.8092   34.0124   60.3065 C   0  0  0  0  0  0  0  0  0  0  0  0
   31.4381   33.3536   61.1543 N   0  0  0  0  0  0  0  0  0  0  0  0
   32.9352   38.1047   58.5082 H   0  0  0  0  0  0  0  0  0  0  0  0
   31.8935   33.0861   55.7410 H   0  0  0  0  0  0  0  0  0  0  0  0
   31.4798   34.6426   54.9812 H   0  0  0  0  0  0  0  0  0  0  0  0
   32.9989   34.1600   53.1052 H   0  0  0  0  0  0  0  0  0  0  0  0
   31.8326   32.8281   53.2929 H   0  0  0  0  0  0  0  0  0  0  0  0
   35.2955   33.8033   53.9262 H   0  0  0  0  0  0  0  0  0  0  0  0
   35.6787   32.2310   54.6684 H   0  0  0  0  0  0  0  0  0  0  0  0
   35.3798   34.0368   56.3753 H   0  0  0  0  0  0  0  0  0  0  0  0
   34.1841   32.7306   56.5603 H   0  0  0  0  0  0  0  0  0  0  0  0
   32.5448   33.2112   57.8684 H   0  0  0  0  0  0  0  0  0  0  0  0
  1  2  3  0  0  0  0
  2  3  1  0  0  0  0
  3 15  2  0  0  0  0
  3  4  1  0  0  0  0
  4  5  2  0  0  0  0
  4 18  1  0  0  0  0
  5  6  1  0  0  0  0
  5  7  1  0  0  0  0
  7  8  1  0  0  0  0
  7 14  2  0  0  0  0
  8 13  1  0  0  0  0
  8  9  1  0  0  0  0
  9 10  1  0  0  0  0
  9 19  1  0  0  0  0
  9 20  1  0  0  0  0
 10 11  1  0  0  0  0
 10 21  1  0  0  0  0
 10 22  1  0  0  0  0
 11 12  1  0  0  0  0
 12 13  1  0  0  0  0
 12 23  1  0  0  0  0
 12 24  1  0  0  0  0
 13 25  1  0  0  0  0
 13 26  1  0  0  0  0
 14 15  1  0  0  0  0
 14 27  1  0  0  0  0
 15 16  1  0  0  0  0
 16 17  3  0  0  0  0
M  END
$$$$
