ZINC000000049046      none
 OpenBabel11202420153D

 37 38  0  0  0  0  0  0  0  0999 V2000
   28.8751   33.3015   65.0501 C   0  0  0  0  0  0  0  0  0  0  0  0
   29.8809   34.4099   64.7327 C   0  0  0  0  0  0  0  0  0  0  0  0
   30.7879   33.9559   63.7260 O   0  0  0  0  0  0  0  0  0  0  0  0
   31.3056   34.8966   62.8921 C   0  0  0  0  0  0  0  0  0  0  0  0
   31.6544   34.5552   61.5934 C   0  0  0  0  0  0  0  0  0  0  0  0
   32.1758   35.5109   60.7443 C   0  0  0  0  0  0  0  0  0  0  0  0
   32.3615   36.8119   61.1940 C   0  0  0  0  0  0  0  0  0  0  0  0
   32.8957   37.7795   60.3362 N   0  0  0  0  0  0  0  0  0  0  0  0
   32.6819   37.6946   59.0082 C   0  0  0  0  0  0  0  0  0  0  0  0
   32.0253   36.7781   58.5560 O   0  0  0  0  0  0  0  0  0  0  0  0
   33.2489   38.7219   58.0977 C   0  0  0  0  0  0  0  0  0  0  0  0
   33.4775   40.3253   58.6526 S   0  0  0  0  0  0  0  0  0  0  0  0
   33.5834   38.3918   56.8345 N   0  0  0  0  0  0  0  0  0  0  0  0
   34.1428   39.4051   55.9363 C   0  0  0  0  0  0  0  0  0  0  0  0
   34.4285   38.7834   54.5936 C   0  0  0  0  0  0  0  0  0  0  0  0
   34.9518   39.4170   53.5286 C   0  0  0  0  0  0  0  0  0  0  0  0
   35.0479   38.4622   52.4904 C   0  0  0  0  0  0  0  0  0  0  0  0
   34.5776   37.3022   52.9829 C   0  0  0  0  0  0  0  0  0  0  0  0
   34.2092   37.5013   54.2590 O   0  0  0  0  0  0  0  0  0  0  0  0
   32.0171   37.1517   62.4962 C   0  0  0  0  0  0  0  0  0  0  0  0
   31.4904   36.1960   63.3421 C   0  0  0  0  0  0  0  0  0  0  0  0
   28.3188   33.0464   64.1482 H   0  0  0  0  0  0  0  0  0  0  0  0
   29.4065   32.4208   65.4105 H   0  0  0  0  0  0  0  0  0  0  0  0
   28.1831   33.6478   65.8180 H   0  0  0  0  0  0  0  0  0  0  0  0
   30.4372   34.6649   65.6347 H   0  0  0  0  0  0  0  0  0  0  0  0
   29.3493   35.2906   64.3723 H   0  0  0  0  0  0  0  0  0  0  0  0
   31.5144   33.5424   61.2453 H   0  0  0  0  0  0  0  0  0  0  0  0
   32.4438   35.2457   59.7321 H   0  0  0  0  0  0  0  0  0  0  0  0
   33.4200   38.5114   60.6972 H   0  0  0  0  0  0  0  0  0  0  0  0
   33.4538   37.4833   56.5201 H   0  0  0  0  0  0  0  0  0  0  0  0
   33.4271   40.2182   55.8153 H   0  0  0  0  0  0  0  0  0  0  0  0
   35.0681   39.7953   56.3602 H   0  0  0  0  0  0  0  0  0  0  0  0
   35.2432   40.4556   53.4769 H   0  0  0  0  0  0  0  0  0  0  0  0
   35.4260   38.6317   51.4931 H   0  0  0  0  0  0  0  0  0  0  0  0
   34.5122   36.3679   52.4451 H   0  0  0  0  0  0  0  0  0  0  0  0
   32.1614   38.1629   62.8468 H   0  0  0  0  0  0  0  0  0  0  0  0
   31.2225   36.4598   64.3544 H   0  0  0  0  0  0  0  0  0  0  0  0
  1  2  1  0  0  0  0
  1 22  1  0  0  0  0
  1 23  1  0  0  0  0
  1 24  1  0  0  0  0
  2  3  1  0  0  0  0
  2 25  1  0  0  0  0
  2 26  1  0  0  0  0
  3  4  1  0  0  0  0
  4 21  2  0  0  0  0
  4  5  1  0  0  0  0
  5  6  2  0  0  0  0
  5 27  1  0  0  0  0
  6  7  1  0  0  0  0
  6 28  1  0  0  0  0
  7  8  1  0  0  0  0
  7 20  2  0  0  0  0
  8  9  1  0  0  0  0
  8 29  1  0  0  0  0
  9 10  2  0  0  0  0
  9 11  1  0  0  0  0
 11 12  2  0  0  0  0
 11 13  1  0  0  0  0
 13 14  1  0  0  0  0
 13 30  1  0  0  0  0
 14 15  1  0  0  0  0
 14 31  1  0  0  0  0
 14 32  1  0  0  0  0
 15 19  1  0  0  0  0
 15 16  2  0  0  0  0
 16 17  1  0  0  0  0
 16 33  1  0  0  0  0
 17 18  2  0  0  0  0
 17 34  1  0  0  0  0
 18 19  1  0  0  0  0
 18 35  1  0  0  0  0
 20 21  1  0  0  0  0
 20 36  1  0  0  0  0
 21 37  1  0  0  0  0
M  END
$$$$
