ZINC000000051149      none
 OpenBabel11202420153D

 28 30  0  0  0  0  0  0  0  0999 V2000
   31.9383   36.5519   60.7348 O   0  0  0  0  0  0  0  0  0  0  0  0
   31.9520   37.6945   61.1411 C   0  0  0  0  0  0  0  0  0  0  0  0
   31.4909   38.0015   62.5425 C   0  0  0  0  0  0  0  0  0  0  0  0
   30.0863   39.1476   62.4796 S   0  0  0  0  0  0  0  0  0  0  0  0
   29.6923   39.3856   64.1804 C   0  0  0  0  0  0  0  0  0  0  0  0
   28.5054   39.6461   64.6761 N   0  0  0  0  0  0  0  0  0  0  0  0
   28.5780   39.7559   65.9560 N   0  0  0  0  0  0  0  0  0  0  0  0
   29.8160   39.5809   66.3503 C   0  0  0  0  0  0  0  0  0  0  0  0
   30.6852   39.5373   67.4183 N   0  0  0  0  0  0  0  0  0  0  0  0
   30.4511   39.6708   68.3500 H   0  0  0  0  0  0  0  0  0  0  0  0
   31.9383   39.2723   66.9325 C   0  0  0  0  0  0  0  0  0  0  0  0
   31.8846   39.1529   65.6440 N   0  0  0  0  0  0  0  0  0  0  0  0
   30.5650   39.3394   65.2285 N   0  0  0  0  0  0  0  0  0  0  0  0
   32.3795   38.6898   60.3391 N   0  0  0  0  0  0  0  0  0  0  0  0
   32.8062   38.4056   59.0427 C   0  0  0  0  0  0  0  0  0  0  0  0
   33.2459   39.4373   58.2207 C   0  0  0  0  0  0  0  0  0  0  0  0
   33.6666   39.1415   56.9362 C   0  0  0  0  0  0  0  0  0  0  0  0
   33.6330   37.8185   56.5164 C   0  0  0  0  0  0  0  0  0  0  0  0
   33.1792   36.8453   57.3843 C   0  0  0  0  0  0  0  0  0  0  0  0
   32.7887   37.1566   58.6055 N   0  0  0  0  0  0  0  0  0  0  0  0
   31.1849   37.0784   63.0347 H   0  0  0  0  0  0  0  0  0  0  0  0
   32.3076   38.4581   63.1020 H   0  0  0  0  0  0  0  0  0  0  0  0
   32.8320   39.1768   67.5311 H   0  0  0  0  0  0  0  0  0  0  0  0
   32.3905   39.6037   60.6639 H   0  0  0  0  0  0  0  0  0  0  0  0
   33.2591   40.4556   58.5800 H   0  0  0  0  0  0  0  0  0  0  0  0
   34.0136   39.9219   56.2753 H   0  0  0  0  0  0  0  0  0  0  0  0
   33.9541   37.5540   55.5197 H   0  0  0  0  0  0  0  0  0  0  0  0
   33.1474   35.8153   57.0609 H   0  0  0  0  0  0  0  0  0  0  0  0
  1  2  2  0  0  0  0
  2  3  1  0  0  0  0
  2 14  1  0  0  0  0
  3  4  1  0  0  0  0
  3 21  1  0  0  0  0
  3 22  1  0  0  0  0
  4  5  1  0  0  0  0
  5 13  1  0  0  0  0
  5  6  2  0  0  0  0
  6  7  1  0  0  0  0
  7  8  2  0  0  0  0
  8 13  1  0  0  0  0
  8  9  1  0  0  0  0
  9 10  1  0  0  0  0
  9 11  1  0  0  0  0
 11 12  2  0  0  0  0
 11 23  1  0  0  0  0
 12 13  1  0  0  0  0
 14 15  1  0  0  0  0
 14 24  1  0  0  0  0
 15 20  2  0  0  0  0
 15 16  1  0  0  0  0
 16 17  2  0  0  0  0
 16 25  1  0  0  0  0
 17 18  1  0  0  0  0
 17 26  1  0  0  0  0
 18 19  2  0  0  0  0
 18 27  1  0  0  0  0
 19 20  1  0  0  0  0
 19 28  1  0  0  0  0
M  END
$$$$
