ZINC000000003002      none
 OpenBabel11202420153D

 29 31  0  0  0  0  0  0  0  0999 V2000
   29.2502   35.6488   63.4971 O   0  0  0  0  0  0  0  0  0  0  0  0
   30.4447   35.8998   63.5434 C   0  0  0  0  0  0  0  0  0  0  0  0
   31.1632   36.3262   64.6801 C   0  0  0  0  0  0  0  0  0  0  0  0
   30.8503   36.5917   66.0038 C   0  0  0  0  0  0  0  0  0  0  0  0
   31.8618   37.0161   66.8677 C   0  0  0  0  0  0  0  0  0  0  0  0
   33.1385   37.1724   66.4418 C   0  0  0  0  0  0  0  0  0  0  0  0
   33.5090   36.9284   65.1606 N   0  0  0  0  0  0  0  0  0  0  0  0
   34.4324   37.0510   64.8905 H   0  0  0  0  0  0  0  0  0  0  0  0
   32.5624   36.5021   64.2329 C   0  0  0  0  0  0  0  0  0  0  0  0
   32.5887   36.1821   62.9312 C   0  0  0  0  0  0  0  0  0  0  0  0
   31.3158   35.8172   62.5181 N   0  0  0  0  0  0  0  0  0  0  0  0
   30.9659   35.4058   61.1561 C   0  0  0  0  0  0  0  0  0  0  0  0
   31.6110   36.3422   60.1672 C   0  0  0  0  0  0  0  0  0  0  0  0
   31.5612   37.7080   60.3745 C   0  0  0  0  0  0  0  0  0  0  0  0
   32.1529   38.5670   59.4676 C   0  0  0  0  0  0  0  0  0  0  0  0
   32.7955   38.0608   58.3529 C   0  0  0  0  0  0  0  0  0  0  0  0
   32.8463   36.6956   58.1448 C   0  0  0  0  0  0  0  0  0  0  0  0
   32.2489   35.8355   59.0492 C   0  0  0  0  0  0  0  0  0  0  0  0
   32.3056   34.1207   58.7843 Cl  0  0  0  0  0  0  0  0  0  0  0  0
   29.8384   36.4729   66.3617 H   0  0  0  0  0  0  0  0  0  0  0  0
   31.6209   37.2242   67.8997 H   0  0  0  0  0  0  0  0  0  0  0  0
   33.8867   37.5025   67.1471 H   0  0  0  0  0  0  0  0  0  0  0  0
   33.4659   36.2044   62.3015 H   0  0  0  0  0  0  0  0  0  0  0  0
   29.8833   35.4377   61.0338 H   0  0  0  0  0  0  0  0  0  0  0  0
   31.3216   34.3906   60.9806 H   0  0  0  0  0  0  0  0  0  0  0  0
   31.0596   38.1040   61.2451 H   0  0  0  0  0  0  0  0  0  0  0  0
   32.1134   39.6341   59.6299 H   0  0  0  0  0  0  0  0  0  0  0  0
   33.2582   38.7325   57.6450 H   0  0  0  0  0  0  0  0  0  0  0  0
   33.3484   36.3004   57.2741 H   0  0  0  0  0  0  0  0  0  0  0  0
  1  2  2  0  0  0  0
  2 11  1  0  0  0  0
  2  3  1  0  0  0  0
  3  9  1  0  0  0  0
  3  4  2  0  0  0  0
  4  5  1  0  0  0  0
  4 20  1  0  0  0  0
  5  6  2  0  0  0  0
  5 21  1  0  0  0  0
  6  7  1  0  0  0  0
  6 22  1  0  0  0  0
  7  8  1  0  0  0  0
  7  9  1  0  0  0  0
  9 10  2  0  0  0  0
 10 11  1  0  0  0  0
 10 23  1  0  0  0  0
 11 12  1  0  0  0  0
 12 13  1  0  0  0  0
 12 24  1  0  0  0  0
 12 25  1  0  0  0  0
 13 18  2  0  0  0  0
 13 14  1  0  0  0  0
 14 15  2  0  0  0  0
 14 26  1  0  0  0  0
 15 16  1  0  0  0  0
 15 27  1  0  0  0  0
 16 17  2  0  0  0  0
 16 28  1  0  0  0  0
 17 18  1  0  0  0  0
 17 29  1  0  0  0  0
 18 19  1  0  0  0  0
M  END
$$$$
