ZINC000000040602      none
 OpenBabel11202420153D

 27 28  0  0  0  0  0  0  0  0999 V2000
   31.8488   38.2467   63.5469 O   0  0  0  0  0  0  0  0  0  0  0  0
   31.7096   37.1653   63.0071 C   0  0  0  0  0  0  0  0  0  0  0  0
   32.1128   36.9868   61.6121 C   0  0  0  0  0  0  0  0  0  0  0  0
   32.0581   38.0278   60.7559 C   0  0  0  0  0  0  0  0  0  0  0  0
   32.4637   37.8483   59.3526 C   0  0  0  0  0  0  0  0  0  0  0  0
   32.5031   36.5683   58.7905 C   0  0  0  0  0  0  0  0  0  0  0  0
   32.8837   36.4084   57.4749 C   0  0  0  0  0  0  0  0  0  0  0  0
   33.2259   37.5105   56.7108 C   0  0  0  0  0  0  0  0  0  0  0  0
   33.1895   38.7805   57.2599 C   0  0  0  0  0  0  0  0  0  0  0  0
   32.8114   38.9569   58.5740 C   0  0  0  0  0  0  0  0  0  0  0  0
   31.1841   36.1317   63.6942 N   0  0  0  0  0  0  0  0  0  0  0  0
   30.7449   36.1723   65.0974 C   0  0  0  0  0  0  0  0  0  0  0  0
   30.2357   34.7426   65.3638 C   0  0  0  0  0  0  0  0  0  0  0  0
   30.4465   34.0517   64.0985 O   0  0  0  0  0  0  0  0  0  0  0  0
   30.9816   34.8980   63.2119 C   0  0  0  0  0  0  0  0  0  0  0  0
   31.2584   34.5776   62.0735 O   0  0  0  0  0  0  0  0  0  0  0  0
   32.4543   36.0218   61.2680 H   0  0  0  0  0  0  0  0  0  0  0  0
   31.7167   38.9929   61.1001 H   0  0  0  0  0  0  0  0  0  0  0  0
   32.2357   35.7074   59.3853 H   0  0  0  0  0  0  0  0  0  0  0  0
   32.9145   35.4205   57.0394 H   0  0  0  0  0  0  0  0  0  0  0  0
   33.5271   37.3784   55.6822 H   0  0  0  0  0  0  0  0  0  0  0  0
   33.4580   39.6356   56.6571 H   0  0  0  0  0  0  0  0  0  0  0  0
   32.7832   39.9486   59.0008 H   0  0  0  0  0  0  0  0  0  0  0  0
   31.5818   36.4111   65.7537 H   0  0  0  0  0  0  0  0  0  0  0  0
   29.9385   36.8943   65.2255 H   0  0  0  0  0  0  0  0  0  0  0  0
   29.1768   34.7526   65.6221 H   0  0  0  0  0  0  0  0  0  0  0  0
   30.8170   34.2728   66.1571 H   0  0  0  0  0  0  0  0  0  0  0  0
  1  2  2  0  0  0  0
  2  3  1  0  0  0  0
  2 11  1  0  0  0  0
  3  4  2  0  0  0  0
  3 17  1  0  0  0  0
  4  5  1  0  0  0  0
  4 18  1  0  0  0  0
  5 10  2  0  0  0  0
  5  6  1  0  0  0  0
  6  7  2  0  0  0  0
  6 19  1  0  0  0  0
  7  8  1  0  0  0  0
  7 20  1  0  0  0  0
  8  9  2  0  0  0  0
  8 21  1  0  0  0  0
  9 10  1  0  0  0  0
  9 22  1  0  0  0  0
 10 23  1  0  0  0  0
 11 15  1  0  0  0  0
 11 12  1  0  0  0  0
 12 13  1  0  0  0  0
 12 24  1  0  0  0  0
 12 25  1  0  0  0  0
 13 14  1  0  0  0  0
 13 26  1  0  0  0  0
 13 27  1  0  0  0  0
 14 15  1  0  0  0  0
 15 16  2  0  0  0  0
M  END
$$$$
