ZINC000000028977      none
 OpenBabel11202420163D

 46 48  0  0  0  0  0  0  0  0999 V2000
   29.4378   35.5780   64.2304 O   0  0  0  0  0  0  0  0  0  0  0  0
   30.4538   36.2163   64.0542 C   0  0  0  0  0  0  0  0  0  0  0  0
   31.5198   36.2451   65.1191 C   0  0  0  0  0  0  0  0  0  0  0  0
   31.7344   37.6298   65.5600 N   0  0  0  0  0  0  0  0  0  0  0  0
   32.8369   37.7094   66.5266 C   0  0  0  0  0  0  0  0  0  0  0  0
   33.1269   39.1763   66.8521 C   0  0  0  0  0  0  0  0  0  0  0  0
   31.8667   39.8241   67.4325 C   0  0  0  0  0  0  0  0  0  0  0  0
   30.7211   39.6848   66.4262 C   0  0  0  0  0  0  0  0  0  0  0  0
   30.5009   38.2030   66.1132 C   0  0  0  0  0  0  0  0  0  0  0  0
   30.6296   36.9000   62.9061 N   0  0  0  0  0  0  0  0  0  0  0  0
   29.6019   36.8858   61.8541 C   0  0  0  0  0  0  0  0  0  0  0  0
   30.2703   36.5169   60.5254 C   0  0  0  0  0  0  0  0  0  0  0  0
   31.3983   37.4254   60.2796 N   0  0  0  0  0  0  0  0  0  0  0  0
   31.9314   37.2275   59.0038 C   0  0  0  0  0  0  0  0  0  0  0  0
   32.4471   35.9872   58.6496 C   0  0  0  0  0  0  0  0  0  0  0  0
   32.9739   35.7951   57.3876 C   0  0  0  0  0  0  0  0  0  0  0  0
   32.9884   36.8356   56.4769 C   0  0  0  0  0  0  0  0  0  0  0  0
   32.4759   38.0716   56.8263 C   0  0  0  0  0  0  0  0  0  0  0  0
   31.9476   38.2707   58.0866 C   0  0  0  0  0  0  0  0  0  0  0  0
   32.4339   37.2804   61.3113 C   0  0  0  0  0  0  0  0  0  0  0  0
   31.8541   37.6805   62.6722 C   0  0  0  0  0  0  0  0  0  0  0  0
   31.2024   35.6386   65.9673 H   0  0  0  0  0  0  0  0  0  0  0  0
   32.4490   35.8448   64.7136 H   0  0  0  0  0  0  0  0  0  0  0  0
   32.5583   37.1831   67.4396 H   0  0  0  0  0  0  0  0  0  0  0  0
   33.7281   37.2490   66.0998 H   0  0  0  0  0  0  0  0  0  0  0  0
   33.4191   39.7001   65.9419 H   0  0  0  0  0  0  0  0  0  0  0  0
   33.9349   39.2346   67.5814 H   0  0  0  0  0  0  0  0  0  0  0  0
   32.0557   40.8801   67.6254 H   0  0  0  0  0  0  0  0  0  0  0  0
   31.5962   39.3264   68.3637 H   0  0  0  0  0  0  0  0  0  0  0  0
   30.9753   40.2166   65.5094 H   0  0  0  0  0  0  0  0  0  0  0  0
   29.8101   40.1062   66.8514 H   0  0  0  0  0  0  0  0  0  0  0  0
   29.6951   38.1012   65.3861 H   0  0  0  0  0  0  0  0  0  0  0  0
   30.2331   37.6744   67.0281 H   0  0  0  0  0  0  0  0  0  0  0  0
   29.1468   37.8730   61.7733 H   0  0  0  0  0  0  0  0  0  0  0  0
   28.8387   36.1465   62.0977 H   0  0  0  0  0  0  0  0  0  0  0  0
   29.5462   36.6089   59.7160 H   0  0  0  0  0  0  0  0  0  0  0  0
   30.6338   35.4904   60.5739 H   0  0  0  0  0  0  0  0  0  0  0  0
   32.4363   35.1743   59.3605 H   0  0  0  0  0  0  0  0  0  0  0  0
   33.3752   34.8312   57.1117 H   0  0  0  0  0  0  0  0  0  0  0  0
   33.4050   36.6840   55.4921 H   0  0  0  0  0  0  0  0  0  0  0  0
   32.4890   38.8822   56.1128 H   0  0  0  0  0  0  0  0  0  0  0  0
   31.5471   39.2360   58.3587 H   0  0  0  0  0  0  0  0  0  0  0  0
   32.7673   36.2433   61.3488 H   0  0  0  0  0  0  0  0  0  0  0  0
   33.2788   37.9260   61.0718 H   0  0  0  0  0  0  0  0  0  0  0  0
   31.6155   38.7441   62.6700 H   0  0  0  0  0  0  0  0  0  0  0  0
   32.5800   37.4667   63.4566 H   0  0  0  0  0  0  0  0  0  0  0  0
  1  2  2  0  0  0  0
  2  3  1  0  0  0  0
  2 10  1  0  0  0  0
  3  4  1  0  0  0  0
  3 22  1  0  0  0  0
  3 23  1  0  0  0  0
  4  9  1  0  0  0  0
  4  5  1  0  0  0  0
  5  6  1  0  0  0  0
  5 24  1  0  0  0  0
  5 25  1  0  0  0  0
  6  7  1  0  0  0  0
  6 26  1  0  0  0  0
  6 27  1  0  0  0  0
  7  8  1  0  0  0  0
  7 28  1  0  0  0  0
  7 29  1  0  0  0  0
  8  9  1  0  0  0  0
  8 30  1  0  0  0  0
  8 31  1  0  0  0  0
  9 32  1  0  0  0  0
  9 33  1  0  0  0  0
 10 21  1  0  0  0  0
 10 11  1  0  0  0  0
 11 12  1  0  0  0  0
 11 34  1  0  0  0  0
 11 35  1  0  0  0  0
 12 13  1  0  0  0  0
 12 36  1  0  0  0  0
 12 37  1  0  0  0  0
 13 14  1  0  0  0  0
 13 20  1  0  0  0  0
 14 19  2  0  0  0  0
 14 15  1  0  0  0  0
 15 16  2  0  0  0  0
 15 38  1  0  0  0  0
 16 17  1  0  0  0  0
 16 39  1  0  0  0  0
 17 18  2  0  0  0  0
 17 40  1  0  0  0  0
 18 19  1  0  0  0  0
 18 41  1  0  0  0  0
 19 42  1  0  0  0  0
 20 21  1  0  0  0  0
 20 43  1  0  0  0  0
 20 44  1  0  0  0  0
 21 45  1  0  0  0  0
 21 46  1  0  0  0  0
M  END
$$$$
