ZINC000000004597      none
 OpenBabel11202420153D

 22 23  0  0  0  0  0  0  0  0999 V2000
   28.5558   39.8642   66.1013 C   0  0  0  0  0  0  0  0  0  0  0  0
   29.6276   39.1013   65.9999 C   0  0  0  0  0  0  0  0  0  0  0  0
   30.2127   38.8840   64.6675 C   0  0  0  0  0  0  0  0  0  0  0  0
   29.7656   39.3916   63.5408 N   0  0  0  0  0  0  0  0  0  0  0  0
   30.5534   38.9728   62.5398 C   0  0  0  0  0  0  0  0  0  0  0  0
   31.5098   38.1866   63.0681 C   0  0  0  0  0  0  0  0  0  0  0  0
   31.2985   38.1372   64.3985 O   0  0  0  0  0  0  0  0  0  0  0  0
   30.2763   38.4446   67.1842 C   0  0  0  0  0  0  0  0  0  0  0  0
   29.8493   39.0962   68.4278 N   0  3  0  0  0  0  0  0  0  0  0  0
   30.1920   38.5716   69.2188 H   0  0  0  0  0  0  0  0  0  0  0  0
   30.2158   40.0357   68.4599 H   0  0  0  0  0  0  0  0  0  0  0  0
   28.3790   39.1397   68.4657 C   0  0  0  0  0  0  0  0  0  0  0  0
   27.8922   40.1470   67.4211 C   0  0  0  0  0  0  0  0  0  0  0  0
   28.1402   40.3008   65.2050 H   0  0  0  0  0  0  0  0  0  0  0  0
   30.4404   39.2217   61.4950 H   0  0  0  0  0  0  0  0  0  0  0  0
   32.3023   37.6910   62.5271 H   0  0  0  0  0  0  0  0  0  0  0  0
   31.3596   38.5214   67.0906 H   0  0  0  0  0  0  0  0  0  0  0  0
   29.9904   37.3933   67.2114 H   0  0  0  0  0  0  0  0  0  0  0  0
   27.9778   38.1526   68.2360 H   0  0  0  0  0  0  0  0  0  0  0  0
   28.0475   39.4508   69.4564 H   0  0  0  0  0  0  0  0  0  0  0  0
   28.1446   41.1566   67.7455 H   0  0  0  0  0  0  0  0  0  0  0  0
   26.8114   40.0612   67.3099 H   0  0  0  0  0  0  0  0  0  0  0  0
  1 13  1  0  0  0  0
  1  2  2  0  0  0  0
  1 14  1  0  0  0  0
  2  3  1  0  0  0  0
  2  8  1  0  0  0  0
  3  7  1  0  0  0  0
  3  4  2  0  0  0  0
  4  5  1  0  0  0  0
  5  6  2  0  0  0  0
  5 15  1  0  0  0  0
  6  7  1  0  0  0  0
  6 16  1  0  0  0  0
  8  9  1  0  0  0  0
  8 17  1  0  0  0  0
  8 18  1  0  0  0  0
  9 10  1  0  0  0  0
  9 11  1  0  0  0  0
  9 12  1  0  0  0  0
 12 13  1  0  0  0  0
 12 19  1  0  0  0  0
 12 20  1  0  0  0  0
 13 21  1  0  0  0  0
 13 22  1  0  0  0  0
M  CHG  1   9   1
M  END
$$$$
