ZINC000000041578      none
 OpenBabel11202420153D

 43 44  0  0  1  0  0  0  0  0999 V2000
   32.4835   38.5544   67.1582 C   0  0  0  0  0  0  0  0  0  0  0  0
   31.4965   39.7209   67.2361 C   0  0  0  0  0  0  0  0  0  0  0  0
   32.2689   41.0412   67.2711 C   0  0  0  0  0  0  0  0  0  0  0  0
   30.6519   39.5904   68.5052 C   0  0  0  0  0  0  0  0  0  0  0  0
   30.5952   39.6980   66.0285 C   0  0  0  0  0  0  0  0  0  0  0  0
   29.7392   40.5406   65.8975 O   0  0  0  0  0  0  0  0  0  0  0  0
   30.7435   38.7415   65.0985 O   0  0  0  0  0  0  0  0  0  0  0  0
   30.3897   39.0888   63.7337 C   0  0  0  0  0  0  0  0  0  0  0  0
   30.6233   37.8814   62.8234 C   0  0  1  0  0  0  0  0  0  0  0  0
   29.7929   37.1800   62.9040 H   0  0  0  0  0  0  0  0  0  0  0  0
   30.7920   38.3092   61.4543 O   0  0  0  0  0  0  0  0  0  0  0  0
   31.4769   37.2205   60.7972 C   0  0  1  0  0  0  0  0  0  0  0  0
   30.7786   36.4167   60.5636 H   0  0  0  0  0  0  0  0  0  0  0  0
   32.1344   37.6942   59.5768 N   0  0  0  0  0  0  0  0  0  0  0  0
   32.5807   38.9858   59.5050 C   0  0  0  0  0  0  0  0  0  0  0  0
   33.1870   39.4222   58.3803 C   0  0  0  0  0  0  0  0  0  0  0  0
   33.3487   38.5289   57.2939 C   0  0  0  0  0  0  0  0  0  0  0  0
   33.8921   38.8996   56.2691 O   0  0  0  0  0  0  0  0  0  0  0  0
   32.8950   37.2638   57.4042 N   0  0  0  0  0  0  0  0  0  0  0  0
   33.0019   36.6461   56.6641 H   0  0  0  0  0  0  0  0  0  0  0  0
   32.2986   36.8538   58.5391 C   0  0  0  0  0  0  0  0  0  0  0  0
   31.8986   35.7089   58.6261 O   0  0  0  0  0  0  0  0  0  0  0  0
   32.5277   36.7393   61.8221 C   0  0  2  0  0  0  0  0  0  0  0  0
   33.4888   37.2192   61.6377 H   0  0  0  0  0  0  0  0  0  0  0  0
   32.6593   35.3172   61.7740 O   0  0  0  0  0  0  0  0  0  0  0  0
   31.9533   37.1840   63.1857 C   0  0  2  0  0  0  0  0  0  0  0  0
   32.6304   37.8839   63.6755 H   0  0  0  0  0  0  0  0  0  0  0  0
   31.7129   36.0520   64.0241 O   0  0  0  0  0  0  0  0  0  0  0  0
   33.0851   38.6474   66.2539 H   0  0  0  0  0  0  0  0  0  0  0  0
   33.1353   38.5709   68.0316 H   0  0  0  0  0  0  0  0  0  0  0  0
   31.9332   37.6139   67.1331 H   0  0  0  0  0  0  0  0  0  0  0  0
   31.5658   41.8721   67.3268 H   0  0  0  0  0  0  0  0  0  0  0  0
   32.9208   41.0577   68.1447 H   0  0  0  0  0  0  0  0  0  0  0  0
   32.8706   41.1342   66.3669 H   0  0  0  0  0  0  0  0  0  0  0  0
   30.1016   38.6499   68.4803 H   0  0  0  0  0  0  0  0  0  0  0  0
   31.3037   39.6068   69.3787 H   0  0  0  0  0  0  0  0  0  0  0  0
   29.9488   40.4214   68.5609 H   0  0  0  0  0  0  0  0  0  0  0  0
   29.3393   39.3769   63.6927 H   0  0  0  0  0  0  0  0  0  0  0  0
   31.0082   39.9215   63.3986 H   0  0  0  0  0  0  0  0  0  0  0  0
   32.4483   39.6531   60.3438 H   0  0  0  0  0  0  0  0  0  0  0  0
   33.5438   40.4392   58.3102 H   0  0  0  0  0  0  0  0  0  0  0  0
   31.8294   34.8405   61.9131 H   0  0  0  0  0  0  0  0  0  0  0  0
   31.2775   36.2673   64.8602 H   0  0  0  0  0  0  0  0  0  0  0  0
  1  2  1  0  0  0  0
  1 29  1  0  0  0  0
  1 30  1  0  0  0  0
  1 31  1  0  0  0  0
  2  3  1  0  0  0  0
  2  4  1  0  0  0  0
  2  5  1  0  0  0  0
  3 32  1  0  0  0  0
  3 33  1  0  0  0  0
  3 34  1  0  0  0  0
  4 35  1  0  0  0  0
  4 36  1  0  0  0  0
  4 37  1  0  0  0  0
  5  6  2  0  0  0  0
  5  7  1  0  0  0  0
  7  8  1  0  0  0  0
  8  9  1  0  0  0  0
  8 38  1  0  0  0  0
  8 39  1  0  0  0  0
  9 10  1  1  0  0  0
  9 26  1  0  0  0  0
  9 11  1  0  0  0  0
 11 12  1  0  0  0  0
 12 13  1  6  0  0  0
 12 14  1  0  0  0  0
 12 23  1  0  0  0  0
 14 21  1  0  0  0  0
 14 15  1  0  0  0  0
 15 16  2  0  0  0  0
 15 40  1  0  0  0  0
 16 17  1  0  0  0  0
 16 41  1  0  0  0  0
 17 18  2  0  0  0  0
 17 19  1  0  0  0  0
 19 20  1  0  0  0  0
 19 21  1  0  0  0  0
 21 22  2  0  0  0  0
 23 24  1  6  0  0  0
 23 25  1  0  0  0  0
 23 26  1  0  0  0  0
 25 42  1  0  0  0  0
 26 27  1  1  0  0  0
 26 28  1  0  0  0  0
 28 43  1  0  0  0  0
M  END
$$$$
