ZINC000000000933      none
 OpenBabel11202420153D

 24 25  0  0  0  0  0  0  0  0999 V2000
   32.9013   36.4412   64.9203 N   0  0  0  0  0  0  0  0  0  0  0  0
   32.2519   37.1859   63.9329 C   0  0  0  0  0  0  0  0  0  0  0  0
   31.2630   38.0963   64.2857 C   0  0  0  0  0  0  0  0  0  0  0  0
   30.6207   38.8334   63.3098 C   0  0  0  0  0  0  0  0  0  0  0  0
   30.9592   38.6683   61.9803 C   0  0  0  0  0  0  0  0  0  0  0  0
   31.9468   37.7600   61.6209 C   0  0  0  0  0  0  0  0  0  0  0  0
   32.2892   37.5937   60.2735 N   0  0  0  0  0  0  0  0  0  0  0  0
   32.7646   38.6523   59.5652 C   0  0  0  0  0  0  0  0  0  0  0  0
   33.1021   38.5153   58.2617 C   0  0  0  0  0  0  0  0  0  0  0  0
   32.9622   37.2717   57.6295 C   0  0  0  0  0  0  0  0  0  0  0  0
   32.4849   36.2108   58.3422 C   0  0  0  0  0  0  0  0  0  0  0  0
   32.1491   36.3857   59.6950 C   0  0  0  0  0  0  0  0  0  0  0  0
   31.7260   35.4434   60.3454 O   0  0  0  0  0  0  0  0  0  0  0  0
   32.5940   37.0179   62.5987 C   0  0  0  0  0  0  0  0  0  0  0  0
   33.5917   35.8061   64.6734 H   0  0  0  0  0  0  0  0  0  0  0  0
   32.6618   36.5592   65.8528 H   0  0  0  0  0  0  0  0  0  0  0  0
   30.9962   38.2277   65.3240 H   0  0  0  0  0  0  0  0  0  0  0  0
   29.8526   39.5404   63.5865 H   0  0  0  0  0  0  0  0  0  0  0  0
   30.4583   39.2493   61.2200 H   0  0  0  0  0  0  0  0  0  0  0  0
   32.8745   39.6122   60.0477 H   0  0  0  0  0  0  0  0  0  0  0  0
   33.4784   39.3634   57.7088 H   0  0  0  0  0  0  0  0  0  0  0  0
   33.2292   37.1549   56.5896 H   0  0  0  0  0  0  0  0  0  0  0  0
   32.3704   35.2452   57.8722 H   0  0  0  0  0  0  0  0  0  0  0  0
   33.3624   36.3114   62.3217 H   0  0  0  0  0  0  0  0  0  0  0  0
  1  2  1  0  0  0  0
  1 15  1  0  0  0  0
  1 16  1  0  0  0  0
  2 14  2  0  0  0  0
  2  3  1  0  0  0  0
  3  4  2  0  0  0  0
  3 17  1  0  0  0  0
  4  5  1  0  0  0  0
  4 18  1  0  0  0  0
  5  6  2  0  0  0  0
  5 19  1  0  0  0  0
  6  7  1  0  0  0  0
  6 14  1  0  0  0  0
  7 12  1  0  0  0  0
  7  8  1  0  0  0  0
  8  9  2  0  0  0  0
  8 20  1  0  0  0  0
  9 10  1  0  0  0  0
  9 21  1  0  0  0  0
 10 11  2  0  0  0  0
 10 22  1  0  0  0  0
 11 12  1  0  0  0  0
 11 23  1  0  0  0  0
 12 13  2  0  0  0  0
 14 24  1  0  0  0  0
M  END
$$$$
