ZINC000000043743      none
 OpenBabel11202420153D

 37 39  0  0  1  0  0  0  0  0999 V2000
   28.5269   31.6478   65.3173 C   0  0  0  0  0  0  0  0  0  0  0  0
   27.6107   32.7715   65.8059 C   0  0  0  0  0  0  0  0  0  0  0  0
   28.2656   34.1033   65.5443 C   0  0  0  0  0  0  0  0  0  0  0  0
   29.0685   34.7455   66.3941 C   0  0  0  0  0  0  0  0  0  0  0  0
   29.5537   35.9580   65.9352 C   0  0  0  0  0  0  0  0  0  0  0  0
   29.1447   36.3005   64.7126 C   0  0  0  0  0  0  0  0  0  0  0  0
   29.5292   37.5662   63.9907 C   0  0  1  0  0  0  0  0  0  0  0  0
   28.6299   38.1404   63.7675 H   0  0  0  0  0  0  0  0  0  0  0  0
   30.4376   38.3834   64.8663 C   0  0  0  0  0  0  0  0  0  0  0  0
   29.8868   39.1569   65.9381 C   0  0  0  0  0  0  0  0  0  0  0  0
   29.4499   39.7706   66.7884 N   0  0  0  0  0  0  0  0  0  0  0  0
   31.7749   38.3925   64.6468 C   0  0  0  0  0  0  0  0  0  0  0  0
   32.5833   39.1508   65.4568 N   0  0  0  0  0  0  0  0  0  0  0  0
   32.3257   37.6759   63.6549 O   0  0  0  0  0  0  0  0  0  0  0  0
   31.5717   37.2869   62.6097 C   0  0  0  0  0  0  0  0  0  0  0  0
   30.2312   37.2140   62.7016 C   0  0  0  0  0  0  0  0  0  0  0  0
   29.4430   36.8118   61.6061 C   0  0  0  0  0  0  0  0  0  0  0  0
   28.2372   36.7389   61.7338 O   0  0  0  0  0  0  0  0  0  0  0  0
   30.0672   36.4713   60.2802 C   0  0  0  0  0  0  0  0  0  0  0  0
   31.3746   37.2569   60.1321 C   0  0  0  0  0  0  0  0  0  0  0  0
   32.2786   36.9310   61.3225 C   0  0  0  0  0  0  0  0  0  0  0  0
   28.0820   35.0526   64.0749 S   0  0  0  0  0  0  0  0  0  0  0  0
   28.0530   30.6847   65.5066 H   0  0  0  0  0  0  0  0  0  0  0  0
   28.7034   31.7620   64.2479 H   0  0  0  0  0  0  0  0  0  0  0  0
   29.4768   31.6962   65.8497 H   0  0  0  0  0  0  0  0  0  0  0  0
   27.4342   32.6574   66.8755 H   0  0  0  0  0  0  0  0  0  0  0  0
   26.6607   32.7232   65.2737 H   0  0  0  0  0  0  0  0  0  0  0  0
   29.3208   34.3497   67.3668 H   0  0  0  0  0  0  0  0  0  0  0  0
   30.2130   36.5799   66.5226 H   0  0  0  0  0  0  0  0  0  0  0  0
   33.5419   39.1645   65.3090 H   0  0  0  0  0  0  0  0  0  0  0  0
   32.1960   39.6726   66.1768 H   0  0  0  0  0  0  0  0  0  0  0  0
   29.3848   36.7427   59.4748 H   0  0  0  0  0  0  0  0  0  0  0  0
   30.2765   35.4025   60.2368 H   0  0  0  0  0  0  0  0  0  0  0  0
   31.8715   36.9698   59.2054 H   0  0  0  0  0  0  0  0  0  0  0  0
   31.1601   38.3255   60.1168 H   0  0  0  0  0  0  0  0  0  0  0  0
   32.5099   35.8659   61.3214 H   0  0  0  0  0  0  0  0  0  0  0  0
   33.2034   37.5026   61.2429 H   0  0  0  0  0  0  0  0  0  0  0  0
  1  2  1  0  0  0  0
  1 23  1  0  0  0  0
  1 24  1  0  0  0  0
  1 25  1  0  0  0  0
  2  3  1  0  0  0  0
  2 26  1  0  0  0  0
  2 27  1  0  0  0  0
  3 22  1  0  0  0  0
  3  4  2  0  0  0  0
  4  5  1  0  0  0  0
  4 28  1  0  0  0  0
  5  6  2  0  0  0  0
  5 29  1  0  0  0  0
  6  7  1  0  0  0  0
  6 22  1  0  0  0  0
  7  8  1  6  0  0  0
  7 16  1  0  0  0  0
  7  9  1  0  0  0  0
  9 10  1  0  0  0  0
  9 12  2  0  0  0  0
 10 11  3  0  0  0  0
 12 13  1  0  0  0  0
 12 14  1  0  0  0  0
 13 30  1  0  0  0  0
 13 31  1  0  0  0  0
 14 15  1  0  0  0  0
 15 21  1  0  0  0  0
 15 16  2  0  0  0  0
 16 17  1  0  0  0  0
 17 18  2  0  0  0  0
 17 19  1  0  0  0  0
 19 20  1  0  0  0  0
 19 32  1  0  0  0  0
 19 33  1  0  0  0  0
 20 21  1  0  0  0  0
 20 34  1  0  0  0  0
 20 35  1  0  0  0  0
 21 36  1  0  0  0  0
 21 37  1  0  0  0  0
M  END
$$$$
