ZINC000000029930      none
 OpenBabel11202420163D

 42 42  0  0  0  0  0  0  0  0999 V2000
   28.0249   38.1686   67.3742 C   0  0  0  0  0  0  0  0  0  0  0  0
   28.0497   39.5884   66.8049 C   0  0  0  0  0  0  0  0  0  0  0  0
   29.4929   39.9856   66.4880 C   0  0  0  0  0  0  0  0  0  0  0  0
   30.0507   39.0550   65.5037 N   0  0  0  0  0  0  0  0  0  0  0  0
   31.2355   38.2602   65.8363 C   0  0  0  0  0  0  0  0  0  0  0  0
   32.4017   39.1951   66.1631 C   0  0  0  0  0  0  0  0  0  0  0  0
   33.6390   38.3649   66.5105 C   0  0  0  0  0  0  0  0  0  0  0  0
   29.4739   38.9300   64.2921 C   0  0  0  0  0  0  0  0  0  0  0  0
   28.4909   39.5895   64.0160 O   0  0  0  0  0  0  0  0  0  0  0  0
   30.0368   37.9905   63.2985 C   0  0  0  0  0  0  0  0  0  0  0  0
   30.4867   38.4632   62.0654 C   0  0  0  0  0  0  0  0  0  0  0  0
   31.0138   37.5799   61.1378 C   0  0  0  0  0  0  0  0  0  0  0  0
   31.4524   38.0393   59.9363 O   0  0  0  0  0  0  0  0  0  0  0  0
   31.9842   37.0733   59.0272 C   0  0  0  0  0  0  0  0  0  0  0  0
   31.0945   36.2269   61.4334 C   0  0  0  0  0  0  0  0  0  0  0  0
   30.6482   35.7526   62.6584 C   0  0  0  0  0  0  0  0  0  0  0  0
   30.7292   34.4261   62.9429 O   0  0  0  0  0  0  0  0  0  0  0  0
   31.2843   33.5791   61.9347 C   0  0  0  0  0  0  0  0  0  0  0  0
   30.1198   36.6291   63.5917 C   0  0  0  0  0  0  0  0  0  0  0  0
   28.4399   37.4761   66.6420 H   0  0  0  0  0  0  0  0  0  0  0  0
   28.6203   38.1326   68.2866 H   0  0  0  0  0  0  0  0  0  0  0  0
   26.9968   37.8856   67.6001 H   0  0  0  0  0  0  0  0  0  0  0  0
   27.6347   40.2809   67.5372 H   0  0  0  0  0  0  0  0  0  0  0  0
   27.4544   39.6245   65.8925 H   0  0  0  0  0  0  0  0  0  0  0  0
   30.0884   39.9495   67.4003 H   0  0  0  0  0  0  0  0  0  0  0  0
   29.5105   40.9973   66.0824 H   0  0  0  0  0  0  0  0  0  0  0  0
   31.0205   37.6317   66.7006 H   0  0  0  0  0  0  0  0  0  0  0  0
   31.5012   37.6310   64.9868 H   0  0  0  0  0  0  0  0  0  0  0  0
   32.6166   39.8235   65.2989 H   0  0  0  0  0  0  0  0  0  0  0  0
   32.1359   39.8242   67.0127 H   0  0  0  0  0  0  0  0  0  0  0  0
   34.4699   39.0311   66.7433 H   0  0  0  0  0  0  0  0  0  0  0  0
   33.4241   37.7365   67.3748 H   0  0  0  0  0  0  0  0  0  0  0  0
   33.9048   37.7358   65.6610 H   0  0  0  0  0  0  0  0  0  0  0  0
   30.4201   39.5158   61.8327 H   0  0  0  0  0  0  0  0  0  0  0  0
   32.8424   36.5795   59.4829 H   0  0  0  0  0  0  0  0  0  0  0  0
   31.2191   36.3322   58.7959 H   0  0  0  0  0  0  0  0  0  0  0  0
   32.2967   37.5716   58.1095 H   0  0  0  0  0  0  0  0  0  0  0  0
   31.5056   35.5407   60.7077 H   0  0  0  0  0  0  0  0  0  0  0  0
   30.6809   33.6482   61.0295 H   0  0  0  0  0  0  0  0  0  0  0  0
   32.3046   33.8946   61.7164 H   0  0  0  0  0  0  0  0  0  0  0  0
   31.2906   32.5483   62.2892 H   0  0  0  0  0  0  0  0  0  0  0  0
   29.7724   36.2591   64.5450 H   0  0  0  0  0  0  0  0  0  0  0  0
  1  2  1  0  0  0  0
  1 20  1  0  0  0  0
  1 21  1  0  0  0  0
  1 22  1  0  0  0  0
  2  3  1  0  0  0  0
  2 23  1  0  0  0  0
  2 24  1  0  0  0  0
  3  4  1  0  0  0  0
  3 25  1  0  0  0  0
  3 26  1  0  0  0  0
  4  5  1  0  0  0  0
  4  8  1  0  0  0  0
  5  6  1  0  0  0  0
  5 27  1  0  0  0  0
  5 28  1  0  0  0  0
  6  7  1  0  0  0  0
  6 29  1  0  0  0  0
  6 30  1  0  0  0  0
  7 31  1  0  0  0  0
  7 32  1  0  0  0  0
  7 33  1  0  0  0  0
  8  9  2  0  0  0  0
  8 10  1  0  0  0  0
 10 19  2  0  0  0  0
 10 11  1  0  0  0  0
 11 12  2  0  0  0  0
 11 34  1  0  0  0  0
 12 13  1  0  0  0  0
 12 15  1  0  0  0  0
 13 14  1  0  0  0  0
 14 35  1  0  0  0  0
 14 36  1  0  0  0  0
 14 37  1  0  0  0  0
 15 16  2  0  0  0  0
 15 38  1  0  0  0  0
 16 17  1  0  0  0  0
 16 19  1  0  0  0  0
 17 18  1  0  0  0  0
 18 39  1  0  0  0  0
 18 40  1  0  0  0  0
 18 41  1  0  0  0  0
 19 42  1  0  0  0  0
M  END
$$$$
