ZINC000000053162      none
 OpenBabel11202420153D

 26 28  0  0  0  0  0  0  0  0999 V2000
   35.4532   40.0767   52.4296 C   0  0  0  0  0  0  0  0  0  0  0  0
   34.8954   39.2769   53.5787 C   0  0  0  0  0  0  0  0  0  0  0  0
   34.6237   39.7492   54.7310 N   0  0  0  0  0  0  0  0  0  0  0  0
   34.1146   38.8608   55.6685 N   0  0  0  0  0  0  0  0  0  0  0  0
   33.6790   38.8444   56.9832 C   0  0  0  0  0  0  0  0  0  0  0  0
   33.2998   37.5719   57.2603 C   0  0  0  0  0  0  0  0  0  0  0  0
   32.7636   37.0844   58.5548 C   0  0  0  0  0  0  0  0  0  0  0  0
   32.4056   35.7452   58.7021 C   0  0  0  0  0  0  0  0  0  0  0  0
   31.9121   35.2931   59.9077 C   0  0  0  0  0  0  0  0  0  0  0  0
   31.7608   36.1739   60.9720 C   0  0  0  0  0  0  0  0  0  0  0  0
   31.2550   35.7151   62.1904 N   0  0  0  0  0  0  0  0  0  0  0  0
   32.1124   37.5106   60.8260 C   0  0  0  0  0  0  0  0  0  0  0  0
   32.6115   37.9659   59.6239 C   0  0  0  0  0  0  0  0  0  0  0  0
   33.4943   36.8294   56.1552 N   0  0  0  0  0  0  0  0  0  0  0  0
   33.9835   37.5996   55.1982 C   0  0  0  0  0  0  0  0  0  0  0  0
   34.5255   37.5596   53.5211 S   0  0  0  0  0  0  0  0  0  0  0  0
   36.5423   40.0540   52.4660 H   0  0  0  0  0  0  0  0  0  0  0  0
   35.1121   39.6465   51.4880 H   0  0  0  0  0  0  0  0  0  0  0  0
   35.1086   41.1082   52.5038 H   0  0  0  0  0  0  0  0  0  0  0  0
   33.6509   39.6849   57.6609 H   0  0  0  0  0  0  0  0  0  0  0  0
   32.5186   35.0614   57.8737 H   0  0  0  0  0  0  0  0  0  0  0  0
   31.6385   34.2547   60.0234 H   0  0  0  0  0  0  0  0  0  0  0  0
   31.1494   36.3290   62.9339 H   0  0  0  0  0  0  0  0  0  0  0  0
   31.0093   34.7823   62.2931 H   0  0  0  0  0  0  0  0  0  0  0  0
   31.9944   38.1932   61.6544 H   0  0  0  0  0  0  0  0  0  0  0  0
   32.8847   39.0047   59.5108 H   0  0  0  0  0  0  0  0  0  0  0  0
  1  2  1  0  0  0  0
  1 17  1  0  0  0  0
  1 18  1  0  0  0  0
  1 19  1  0  0  0  0
  2 16  1  0  0  0  0
  2  3  2  0  0  0  0
  3  4  1  0  0  0  0
  4 15  1  0  0  0  0
  4  5  1  0  0  0  0
  5  6  2  0  0  0  0
  5 20  1  0  0  0  0
  6  7  1  0  0  0  0
  6 14  1  0  0  0  0
  7 13  2  0  0  0  0
  7  8  1  0  0  0  0
  8  9  2  0  0  0  0
  8 21  1  0  0  0  0
  9 10  1  0  0  0  0
  9 22  1  0  0  0  0
 10 11  1  0  0  0  0
 10 12  2  0  0  0  0
 11 23  1  0  0  0  0
 11 24  1  0  0  0  0
 12 13  1  0  0  0  0
 12 25  1  0  0  0  0
 13 26  1  0  0  0  0
 14 15  2  0  0  0  0
 15 16  1  0  0  0  0
M  END
$$$$
