ZINC000000039779      none
 OpenBabel11202420153D

 23 24  0  0  0  0  0  0  0  0999 V2000
   33.0063   38.9788   66.0870 N   0  0  0  0  0  0  0  0  0  0  0  0
   32.6217   38.0900   65.0944 C   0  0  0  0  0  0  0  0  0  0  0  0
   31.8282   38.3748   64.1097 N   0  0  0  0  0  0  0  0  0  0  0  0
   31.5674   37.4029   63.2522 C   0  0  0  0  0  0  0  0  0  0  0  0
   30.5100   37.6195   61.8595 S   0  0  0  0  0  0  0  0  0  0  0  0
   30.0631   38.9678   61.9008 O   0  0  0  0  0  0  0  0  0  0  0  0
   29.6253   36.5074   61.8504 O   0  0  0  0  0  0  0  0  0  0  0  0
   31.5106   37.4709   60.4168 C   0  0  0  0  0  0  0  0  0  0  0  0
   32.1133   38.5909   59.8752 C   0  0  0  0  0  0  0  0  0  0  0  0
   32.8940   38.4751   58.7403 C   0  0  0  0  0  0  0  0  0  0  0  0
   33.0799   37.2378   58.1526 C   0  0  0  0  0  0  0  0  0  0  0  0
   32.4780   36.1177   58.6947 C   0  0  0  0  0  0  0  0  0  0  0  0
   31.6934   36.2342   59.8268 C   0  0  0  0  0  0  0  0  0  0  0  0
   32.1654   36.2432   63.5304 C   0  0  0  0  0  0  0  0  0  0  0  0
   32.0253   34.7776   62.6105 Cl  0  0  0  0  0  0  0  0  0  0  0  0
   33.1247   36.4593   64.9921 S   0  0  0  0  0  0  0  0  0  0  0  0
   32.6763   39.8908   66.0757 H   0  0  0  0  0  0  0  0  0  0  0  0
   33.6053   38.6884   66.7925 H   0  0  0  0  0  0  0  0  0  0  0  0
   31.9705   39.5571   60.3362 H   0  0  0  0  0  0  0  0  0  0  0  0
   33.3612   39.3508   58.3146 H   0  0  0  0  0  0  0  0  0  0  0  0
   33.6927   37.1469   57.2679 H   0  0  0  0  0  0  0  0  0  0  0  0
   32.6205   35.1515   58.2336 H   0  0  0  0  0  0  0  0  0  0  0  0
   31.2228   35.3591   60.2501 H   0  0  0  0  0  0  0  0  0  0  0  0
  1  2  1  0  0  0  0
  1 17  1  0  0  0  0
  1 18  1  0  0  0  0
  2 16  1  0  0  0  0
  2  3  2  0  0  0  0
  3  4  1  0  0  0  0
  4  5  1  0  0  0  0
  4 14  2  0  0  0  0
  5  6  2  0  0  0  0
  5  7  2  0  0  0  0
  5  8  1  0  0  0  0
  8 13  2  0  0  0  0
  8  9  1  0  0  0  0
  9 10  2  0  0  0  0
  9 19  1  0  0  0  0
 10 11  1  0  0  0  0
 10 20  1  0  0  0  0
 11 12  2  0  0  0  0
 11 21  1  0  0  0  0
 12 13  1  0  0  0  0
 12 22  1  0  0  0  0
 13 23  1  0  0  0  0
 14 15  1  0  0  0  0
 14 16  1  0  0  0  0
M  END
$$$$
