ZINC000000027595      none
 OpenBabel11202420153D

 27 27  0  0  0  0  0  0  0  0999 V2000
   32.2534   36.0328   52.6282 C   0  0  0  0  0  0  0  0  0  0  0  0
   33.2060   34.8402   52.5238 C   0  0  0  0  0  0  0  0  0  0  0  0
   33.8894   34.6543   53.7914 O   0  0  0  0  0  0  0  0  0  0  0  0
   33.1236   34.4112   54.8666 C   0  0  0  0  0  0  0  0  0  0  0  0
   31.9220   34.3555   54.7524 O   0  0  0  0  0  0  0  0  0  0  0  0
   33.7619   34.2138   56.2174 C   0  0  0  0  0  0  0  0  0  0  0  0
   33.2655   35.2326   57.1457 N   0  0  0  0  0  0  0  0  0  0  0  0
   32.8476   35.0125   58.4645 N   0  0  0  0  0  0  0  0  0  0  0  0
   32.4749   36.1591   58.9724 C   0  0  0  0  0  0  0  0  0  0  0  0
   31.9539   36.3793   60.3692 C   0  0  0  0  0  0  0  0  0  0  0  0
   31.9264   35.1598   61.0542 F   0  0  0  0  0  0  0  0  0  0  0  0
   32.7914   37.2742   61.0438 F   0  0  0  0  0  0  0  0  0  0  0  0
   30.6603   36.9082   60.3066 F   0  0  0  0  0  0  0  0  0  0  0  0
   32.6431   37.1459   57.9947 C   0  0  0  0  0  0  0  0  0  0  0  0
   32.2577   38.9864   58.1935 Br  0  0  0  0  0  0  0  0  0  0  0  0
   33.1353   36.5506   56.8831 C   0  0  0  0  0  0  0  0  0  0  0  0
   33.4741   37.2356   55.5841 C   0  0  0  0  0  0  0  0  0  0  0  0
   32.8210   36.9313   52.8701 H   0  0  0  0  0  0  0  0  0  0  0  0
   31.7403   36.1724   51.6767 H   0  0  0  0  0  0  0  0  0  0  0  0
   31.5200   35.8444   53.4122 H   0  0  0  0  0  0  0  0  0  0  0  0
   33.9395   35.0285   51.7398 H   0  0  0  0  0  0  0  0  0  0  0  0
   32.6382   33.9417   52.2820 H   0  0  0  0  0  0  0  0  0  0  0  0
   33.5106   33.2233   56.5968 H   0  0  0  0  0  0  0  0  0  0  0  0
   34.8442   34.3035   56.1244 H   0  0  0  0  0  0  0  0  0  0  0  0
   32.5976   37.2395   54.9361 H   0  0  0  0  0  0  0  0  0  0  0  0
   33.7825   38.2617   55.7841 H   0  0  0  0  0  0  0  0  0  0  0  0
   34.2870   36.7011   55.0927 H   0  0  0  0  0  0  0  0  0  0  0  0
  1  2  1  0  0  0  0
  1 18  1  0  0  0  0
  1 19  1  0  0  0  0
  1 20  1  0  0  0  0
  2  3  1  0  0  0  0
  2 21  1  0  0  0  0
  2 22  1  0  0  0  0
  3  4  1  0  0  0  0
  4  5  2  0  0  0  0
  4  6  1  0  0  0  0
  6  7  1  0  0  0  0
  6 23  1  0  0  0  0
  6 24  1  0  0  0  0
  7 16  1  0  0  0  0
  7  8  1  0  0  0  0
  8  9  2  0  0  0  0
  9 10  1  0  0  0  0
  9 14  1  0  0  0  0
 10 11  1  0  0  0  0
 10 12  1  0  0  0  0
 10 13  1  0  0  0  0
 14 15  1  0  0  0  0
 14 16  2  0  0  0  0
 16 17  1  0  0  0  0
 17 25  1  0  0  0  0
 17 26  1  0  0  0  0
 17 27  1  0  0  0  0
M  END
$$$$
