ZINC000000030083      none
 OpenBabel11202420163D

 26 26  0  0  0  0  0  0  0  0999 V2000
   32.3080   33.1878   60.8092 C   0  0  0  0  0  0  0  0  0  0  0  0
   31.6513   34.3822   61.5043 C   0  0  0  0  0  0  0  0  0  0  0  0
   30.9195   35.1482   60.5453 O   0  0  0  0  0  0  0  0  0  0  0  0
   31.5895   36.1482   59.9129 C   0  0  0  0  0  0  0  0  0  0  0  0
   32.2604   35.8934   58.7277 C   0  0  0  0  0  0  0  0  0  0  0  0
   32.9408   36.9112   58.0857 C   0  0  0  0  0  0  0  0  0  0  0  0
   32.9543   38.1853   58.6230 C   0  0  0  0  0  0  0  0  0  0  0  0
   32.2877   38.4476   59.8047 C   0  0  0  0  0  0  0  0  0  0  0  0
   31.5985   37.4326   60.4520 C   0  0  0  0  0  0  0  0  0  0  0  0
   30.9169   37.6975   61.6474 N   0  0  0  0  0  0  0  0  0  0  0  0
   31.5516   37.5636   62.8288 C   0  0  0  0  0  0  0  0  0  0  0  0
   30.8186   37.8484   64.1144 C   0  0  0  0  0  0  0  0  0  0  0  0
   32.7127   37.2139   62.8573 O   0  0  0  0  0  0  0  0  0  0  0  0
   31.5383   32.5629   60.3561 H   0  0  0  0  0  0  0  0  0  0  0  0
   32.9870   33.5460   60.0355 H   0  0  0  0  0  0  0  0  0  0  0  0
   32.8662   32.6035   61.5406 H   0  0  0  0  0  0  0  0  0  0  0  0
   32.4210   35.0070   61.9575 H   0  0  0  0  0  0  0  0  0  0  0  0
   30.9721   34.0239   62.2779 H   0  0  0  0  0  0  0  0  0  0  0  0
   32.2521   34.8993   58.3055 H   0  0  0  0  0  0  0  0  0  0  0  0
   33.4634   36.7107   57.1620 H   0  0  0  0  0  0  0  0  0  0  0  0
   33.4875   38.9772   58.1180 H   0  0  0  0  0  0  0  0  0  0  0  0
   32.3000   39.4436   60.2222 H   0  0  0  0  0  0  0  0  0  0  0  0
   29.9884   37.9772   61.6245 H   0  0  0  0  0  0  0  0  0  0  0  0
   29.9609   37.1812   64.1990 H   0  0  0  0  0  0  0  0  0  0  0  0
   31.4893   37.6871   64.9583 H   0  0  0  0  0  0  0  0  0  0  0  0
   30.4756   38.8831   64.1155 H   0  0  0  0  0  0  0  0  0  0  0  0
  1  2  1  0  0  0  0
  1 14  1  0  0  0  0
  1 15  1  0  0  0  0
  1 16  1  0  0  0  0
  2  3  1  0  0  0  0
  2 17  1  0  0  0  0
  2 18  1  0  0  0  0
  3  4  1  0  0  0  0
  4  9  2  0  0  0  0
  4  5  1  0  0  0  0
  5  6  2  0  0  0  0
  5 19  1  0  0  0  0
  6  7  1  0  0  0  0
  6 20  1  0  0  0  0
  7  8  2  0  0  0  0
  7 21  1  0  0  0  0
  8  9  1  0  0  0  0
  8 22  1  0  0  0  0
  9 10  1  0  0  0  0
 10 11  1  0  0  0  0
 10 23  1  0  0  0  0
 11 12  1  0  0  0  0
 11 13  2  0  0  0  0
 12 24  1  0  0  0  0
 12 25  1  0  0  0  0
 12 26  1  0  0  0  0
M  END
$$$$
