ZINC000000050397      none
 OpenBabel11202420153D

 41 44  0  0  0  0  0  0  0  0999 V2000
   30.6537   39.7870   65.7928 N   0  0  0  0  0  0  0  0  0  0  0  0
   30.8476   38.9772   64.6685 C   0  0  0  0  0  0  0  0  0  0  0  0
   29.8370   38.8448   63.7251 C   0  0  0  0  0  0  0  0  0  0  0  0
   30.0291   38.0452   62.6157 C   0  0  0  0  0  0  0  0  0  0  0  0
   31.2309   37.3737   62.4439 C   0  0  0  0  0  0  0  0  0  0  0  0
   31.4191   36.5861   61.3516 O   0  0  0  0  0  0  0  0  0  0  0  0
   31.9457   37.1559   60.2385 C   0  0  0  0  0  0  0  0  0  0  0  0
   32.2732   38.5055   60.2420 C   0  0  0  0  0  0  0  0  0  0  0  0
   32.8102   39.0986   59.1138 C   0  0  0  0  0  0  0  0  0  0  0  0
   33.0232   38.3408   57.9709 C   0  0  0  0  0  0  0  0  0  0  0  0
   32.6914   36.9691   57.9644 C   0  0  0  0  0  0  0  0  0  0  0  0
   32.1548   36.3843   59.0972 C   0  0  0  0  0  0  0  0  0  0  0  0
   33.0349   36.4773   56.6130 C   0  0  0  0  0  0  0  0  0  0  0  0
   32.8895   35.3395   56.2139 O   0  0  0  0  0  0  0  0  0  0  0  0
   33.5383   37.5015   55.9007 N   0  0  0  0  0  0  0  0  0  0  0  0
   33.9760   37.4043   54.5729 C   0  0  0  0  0  0  0  0  0  0  0  0
   34.9915   38.2334   54.1133 C   0  0  0  0  0  0  0  0  0  0  0  0
   35.4235   38.1388   52.8044 C   0  0  0  0  0  0  0  0  0  0  0  0
   34.8475   37.2199   51.9483 C   0  0  0  0  0  0  0  0  0  0  0  0
   33.8315   36.3878   52.4019 C   0  0  0  0  0  0  0  0  0  0  0  0
   33.2490   35.4594   51.5361 N   0  0  0  0  0  0  0  0  0  0  0  0
   33.3919   36.4843   53.7151 C   0  0  0  0  0  0  0  0  0  0  0  0
   33.5609   38.6325   56.6283 C   0  0  0  0  0  0  0  0  0  0  0  0
   33.9577   39.7145   56.2438 O   0  0  0  0  0  0  0  0  0  0  0  0
   32.2388   37.5011   63.3888 C   0  0  0  0  0  0  0  0  0  0  0  0
   32.0505   38.3053   64.4954 C   0  0  0  0  0  0  0  0  0  0  0  0
   29.8131   40.2560   65.9136 H   0  0  0  0  0  0  0  0  0  0  0  0
   31.3596   39.8794   66.4516 H   0  0  0  0  0  0  0  0  0  0  0  0
   28.9011   39.3669   63.8591 H   0  0  0  0  0  0  0  0  0  0  0  0
   29.2432   37.9420   61.8821 H   0  0  0  0  0  0  0  0  0  0  0  0
   32.1072   39.0956   61.1311 H   0  0  0  0  0  0  0  0  0  0  0  0
   33.0626   40.1486   59.1222 H   0  0  0  0  0  0  0  0  0  0  0  0
   31.8989   35.3351   59.0970 H   0  0  0  0  0  0  0  0  0  0  0  0
   35.4440   38.9524   54.7800 H   0  0  0  0  0  0  0  0  0  0  0  0
   36.2133   38.7843   52.4498 H   0  0  0  0  0  0  0  0  0  0  0  0
   35.1871   37.1486   50.9256 H   0  0  0  0  0  0  0  0  0  0  0  0
   33.5540   35.3951   50.6175 H   0  0  0  0  0  0  0  0  0  0  0  0
   32.5426   34.8760   51.8545 H   0  0  0  0  0  0  0  0  0  0  0  0
   32.5995   35.8415   54.0691 H   0  0  0  0  0  0  0  0  0  0  0  0
   33.1724   36.9744   63.2567 H   0  0  0  0  0  0  0  0  0  0  0  0
   32.8370   38.4082   65.2285 H   0  0  0  0  0  0  0  0  0  0  0  0
  1  2  1  0  0  0  0
  1 27  1  0  0  0  0
  1 28  1  0  0  0  0
  2 26  2  0  0  0  0
  2  3  1  0  0  0  0
  3  4  2  0  0  0  0
  3 29  1  0  0  0  0
  4  5  1  0  0  0  0
  4 30  1  0  0  0  0
  5  6  1  0  0  0  0
  5 25  2  0  0  0  0
  6  7  1  0  0  0  0
  7 12  2  0  0  0  0
  7  8  1  0  0  0  0
  8  9  2  0  0  0  0
  8 31  1  0  0  0  0
  9 10  1  0  0  0  0
  9 32  1  0  0  0  0
 10 23  1  0  0  0  0
 10 11  2  0  0  0  0
 11 12  1  0  0  0  0
 11 13  1  0  0  0  0
 12 33  1  0  0  0  0
 13 14  2  0  0  0  0
 13 15  1  0  0  0  0
 15 16  1  0  0  0  0
 15 23  1  0  0  0  0
 16 22  2  0  0  0  0
 16 17  1  0  0  0  0
 17 18  2  0  0  0  0
 17 34  1  0  0  0  0
 18 19  1  0  0  0  0
 18 35  1  0  0  0  0
 19 20  2  0  0  0  0
 19 36  1  0  0  0  0
 20 21  1  0  0  0  0
 20 22  1  0  0  0  0
 21 37  1  0  0  0  0
 21 38  1  0  0  0  0
 22 39  1  0  0  0  0
 23 24  2  0  0  0  0
 25 26  1  0  0  0  0
 25 40  1  0  0  0  0
 26 41  1  0  0  0  0
M  END
$$$$
