ZINC000000019040      none
 OpenBabel11202420153D

 24 24  0  0  0  0  0  0  0  0999 V2000
   31.1777   36.6870   66.3875 O   0  0  0  0  0  0  0  0  0  0  0  0
   30.6373   36.3344   65.3531 C   0  0  0  0  0  0  0  0  0  0  0  0
   30.3126   35.1691   65.2014 O   0  0  0  0  0  1  0  0  0  0  0  0
   30.3706   37.3391   64.2618 C   0  0  0  0  0  0  0  0  0  0  0  0
   31.0738   36.9312   63.0382 N   0  3  0  0  0  0  0  0  0  0  0  0
   30.7436   36.0231   62.7474 H   0  0  0  0  0  0  0  0  0  0  0  0
   32.0654   36.8864   63.2193 H   0  0  0  0  0  0  0  0  0  0  0  0
   30.8139   37.9105   61.9746 C   0  0  0  0  0  0  0  0  0  0  0  0
   31.5352   37.4920   60.7193 C   0  0  0  0  0  0  0  0  0  0  0  0
   32.2476   38.4230   59.9883 C   0  0  0  0  0  0  0  0  0  0  0  0
   32.9103   38.0396   58.8371 C   0  0  0  0  0  0  0  0  0  0  0  0
   32.8615   36.7239   58.4142 C   0  0  0  0  0  0  0  0  0  0  0  0
   32.1500   35.7894   59.1411 C   0  0  0  0  0  0  0  0  0  0  0  0
   31.4891   36.1705   60.3001 C   0  0  0  0  0  0  0  0  0  0  0  0
   30.7937   35.2517   61.0206 O   0  0  0  0  0  0  0  0  0  0  0  0
   30.7273   38.3200   64.5760 H   0  0  0  0  0  0  0  0  0  0  0  0
   29.2994   37.3875   64.0664 H   0  0  0  0  0  0  0  0  0  0  0  0
   31.1706   38.8914   62.2888 H   0  0  0  0  0  0  0  0  0  0  0  0
   29.7427   37.9590   61.7792 H   0  0  0  0  0  0  0  0  0  0  0  0
   32.2871   39.4512   60.3164 H   0  0  0  0  0  0  0  0  0  0  0  0
   33.4666   38.7689   58.2670 H   0  0  0  0  0  0  0  0  0  0  0  0
   33.3800   36.4267   57.5146 H   0  0  0  0  0  0  0  0  0  0  0  0
   32.1120   34.7621   58.8102 H   0  0  0  0  0  0  0  0  0  0  0  0
   30.8201   34.3591   60.6497 H   0  0  0  0  0  0  0  0  0  0  0  0
  1  2  2  0  0  0  0
  2  3  1  0  0  0  0
  2  4  1  0  0  0  0
  4  5  1  0  0  0  0
  4 16  1  0  0  0  0
  4 17  1  0  0  0  0
  5  6  1  0  0  0  0
  5  7  1  0  0  0  0
  5  8  1  0  0  0  0
  8  9  1  0  0  0  0
  8 18  1  0  0  0  0
  8 19  1  0  0  0  0
  9 14  2  0  0  0  0
  9 10  1  0  0  0  0
 10 11  2  0  0  0  0
 10 20  1  0  0  0  0
 11 12  1  0  0  0  0
 11 21  1  0  0  0  0
 12 13  2  0  0  0  0
 12 22  1  0  0  0  0
 13 14  1  0  0  0  0
 13 23  1  0  0  0  0
 14 15  1  0  0  0  0
 15 24  1  0  0  0  0
M  CHG  1   5   1
M  END
$$$$
