ZINC000000028011      none
 OpenBabel11202420163D

 30 31  0  0  0  0  0  0  0  0999 V2000
   33.0125   35.5000   51.2799 C   0  0  0  0  0  0  0  0  0  0  0  0
   32.5934   36.0534   52.6433 C   0  0  0  0  0  0  0  0  0  0  0  0
   33.7050   36.0031   53.5400 O   0  0  0  0  0  0  0  0  0  0  0  0
   33.5550   35.2586   54.6680 C   0  0  0  0  0  0  0  0  0  0  0  0
   33.0566   35.8399   55.8185 C   0  0  0  0  0  0  0  0  0  0  0  0
   32.9033   35.0715   56.9758 C   0  0  0  0  0  0  0  0  0  0  0  0
   32.3727   35.6861   58.2056 C   0  0  0  0  0  0  0  0  0  0  0  0
   32.5819   36.9452   58.4445 N   0  0  0  0  0  0  0  0  0  0  0  0
   32.0776   37.5295   59.6136 N   0  0  0  0  0  0  0  0  0  0  0  0
   31.3249   36.9067   60.6248 N   0  0  0  0  0  0  0  0  0  0  0  0
   31.0741   37.8067   61.5126 N   0  0  0  0  0  0  0  0  0  0  0  0
   31.5800   38.9346   61.1663 N   0  0  0  0  0  0  0  0  0  0  0  0
   32.2054   38.8261   60.0139 C   0  0  0  0  0  0  0  0  0  0  0  0
   32.8662   39.8360   59.3367 N   0  0  0  0  0  0  0  0  0  0  0  0
   33.2597   33.7203   56.9654 C   0  0  0  0  0  0  0  0  0  0  0  0
   33.7512   33.1461   55.8124 C   0  0  0  0  0  0  0  0  0  0  0  0
   33.9033   33.9093   54.6636 C   0  0  0  0  0  0  0  0  0  0  0  0
   34.3937   33.3396   53.5313 O   0  0  0  0  0  0  0  0  0  0  0  0
   33.3418   34.4671   51.3926 H   0  0  0  0  0  0  0  0  0  0  0  0
   32.1647   35.5384   50.5959 H   0  0  0  0  0  0  0  0  0  0  0  0
   33.8296   36.1002   50.8796 H   0  0  0  0  0  0  0  0  0  0  0  0
   31.7764   35.4532   53.0435 H   0  0  0  0  0  0  0  0  0  0  0  0
   32.2641   37.0863   52.5305 H   0  0  0  0  0  0  0  0  0  0  0  0
   32.7865   36.8855   55.8232 H   0  0  0  0  0  0  0  0  0  0  0  0
   31.8099   35.0895   58.9081 H   0  0  0  0  0  0  0  0  0  0  0  0
   33.2970   39.6495   58.4879 H   0  0  0  0  0  0  0  0  0  0  0  0
   32.8987   40.7303   59.7109 H   0  0  0  0  0  0  0  0  0  0  0  0
   33.1466   33.1250   57.8594 H   0  0  0  0  0  0  0  0  0  0  0  0
   34.0228   32.1009   55.8047 H   0  0  0  0  0  0  0  0  0  0  0  0
   34.4642   33.9486   52.7836 H   0  0  0  0  0  0  0  0  0  0  0  0
  1  2  1  0  0  0  0
  1 19  1  0  0  0  0
  1 20  1  0  0  0  0
  1 21  1  0  0  0  0
  2  3  1  0  0  0  0
  2 22  1  0  0  0  0
  2 23  1  0  0  0  0
  3  4  1  0  0  0  0
  4 17  2  0  0  0  0
  4  5  1  0  0  0  0
  5  6  2  0  0  0  0
  5 24  1  0  0  0  0
  6  7  1  0  0  0  0
  6 15  1  0  0  0  0
  7  8  2  0  0  0  0
  7 25  1  0  0  0  0
  8  9  1  0  0  0  0
  9 13  1  0  0  0  0
  9 10  1  0  0  0  0
 10 11  2  0  0  0  0
 11 12  1  0  0  0  0
 12 13  2  0  0  0  0
 13 14  1  0  0  0  0
 14 26  1  0  0  0  0
 14 27  1  0  0  0  0
 15 16  2  0  0  0  0
 15 28  1  0  0  0  0
 16 17  1  0  0  0  0
 16 29  1  0  0  0  0
 17 18  1  0  0  0  0
 18 30  1  0  0  0  0
M  END
$$$$
