ZINC000000036197      none
 OpenBabel11202420153D

 36 39  0  0  1  0  0  0  0  0999 V2000
   28.6875   32.0121   64.2974 N   0  0  0  0  0  0  0  0  0  0  0  0
   29.1471   33.0092   64.5894 C   0  0  0  0  0  0  0  0  0  0  0  0
   29.7265   34.2659   64.9574 C   0  0  0  0  0  0  0  0  0  0  0  0
   29.3111   34.8860   66.0880 C   0  0  0  0  0  0  0  0  0  0  0  0
   28.3402   34.2959   66.8584 N   0  0  0  0  0  0  0  0  0  0  0  0
   29.8283   36.0661   66.4730 O   0  0  0  0  0  0  0  0  0  0  0  0
   31.0147   36.4745   65.9813 C   0  0  0  0  0  0  0  0  0  0  0  0
   31.5320   35.9447   64.8376 C   0  0  0  0  0  0  0  0  0  0  0  0
   32.7732   36.3960   64.3530 C   0  0  0  0  0  0  0  0  0  0  0  0
   33.2210   35.9094   63.3283 O   0  0  0  0  0  0  0  0  0  0  0  0
   33.4793   37.3475   64.9857 N   0  0  0  0  0  0  0  0  0  0  0  0
   34.3308   37.6325   64.6187 H   0  0  0  0  0  0  0  0  0  0  0  0
   33.0144   37.9263   66.1486 C   0  0  0  0  0  0  0  0  0  0  0  0
   33.7477   38.9106   66.8028 C   0  0  0  0  0  0  0  0  0  0  0  0
   33.2581   39.4688   67.9641 C   0  0  0  0  0  0  0  0  0  0  0  0
   32.0398   39.0592   68.4876 C   0  0  0  0  0  0  0  0  0  0  0  0
   31.3033   38.0936   67.8606 C   0  0  0  0  0  0  0  0  0  0  0  0
   31.7808   37.5149   66.6823 C   0  0  0  0  0  0  0  0  0  0  0  0
   30.7831   34.8805   64.0799 C   0  0  2  0  0  0  0  0  0  0  0  0
   31.4798   34.1038   63.7647 H   0  0  0  0  0  0  0  0  0  0  0  0
   30.1400   35.4935   62.8627 C   0  0  0  0  0  0  0  0  0  0  0  0
   29.2001   36.5049   62.9899 C   0  0  0  0  0  0  0  0  0  0  0  0
   28.6346   37.0460   61.8509 C   0  0  0  0  0  0  0  0  0  0  0  0
   28.9725   36.6044   60.6551 N   0  0  0  0  0  0  0  0  0  0  0  0
   29.8590   35.6410   60.4964 C   0  0  0  0  0  0  0  0  0  0  0  0
   30.4698   35.0556   61.5893 C   0  0  0  0  0  0  0  0  0  0  0  0
   28.0348   34.7302   67.6702 H   0  0  0  0  0  0  0  0  0  0  0  0
   27.9596   33.4447   66.5909 H   0  0  0  0  0  0  0  0  0  0  0  0
   34.6962   39.2364   66.4024 H   0  0  0  0  0  0  0  0  0  0  0  0
   33.8282   40.2330   68.4716 H   0  0  0  0  0  0  0  0  0  0  0  0
   31.6709   39.5069   69.3986 H   0  0  0  0  0  0  0  0  0  0  0  0
   30.3561   37.7800   68.2739 H   0  0  0  0  0  0  0  0  0  0  0  0
   28.9160   36.8676   63.9667 H   0  0  0  0  0  0  0  0  0  0  0  0
   27.9042   37.8362   61.9412 H   0  0  0  0  0  0  0  0  0  0  0  0
   30.1105   35.3057   59.5012 H   0  0  0  0  0  0  0  0  0  0  0  0
   31.1945   34.2665   61.4530 H   0  0  0  0  0  0  0  0  0  0  0  0
  1  2  3  0  0  0  0
  2  3  1  0  0  0  0
  3 19  1  0  0  0  0
  3  4  2  0  0  0  0
  4  5  1  0  0  0  0
  4  6  1  0  0  0  0
  5 27  1  0  0  0  0
  5 28  1  0  0  0  0
  6  7  1  0  0  0  0
  7 18  1  0  0  0  0
  7  8  2  0  0  0  0
  8  9  1  0  0  0  0
  8 19  1  0  0  0  0
  9 10  2  0  0  0  0
  9 11  1  0  0  0  0
 11 12  1  0  0  0  0
 11 13  1  0  0  0  0
 13 18  2  0  0  0  0
 13 14  1  0  0  0  0
 14 15  2  0  0  0  0
 14 29  1  0  0  0  0
 15 16  1  0  0  0  0
 15 30  1  0  0  0  0
 16 17  2  0  0  0  0
 16 31  1  0  0  0  0
 17 18  1  0  0  0  0
 17 32  1  0  0  0  0
 19 20  1  6  0  0  0
 19 21  1  0  0  0  0
 21 26  2  0  0  0  0
 21 22  1  0  0  0  0
 22 23  2  0  0  0  0
 22 33  1  0  0  0  0
 23 24  1  0  0  0  0
 23 34  1  0  0  0  0
 24 25  2  0  0  0  0
 25 26  1  0  0  0  0
 25 35  1  0  0  0  0
 26 36  1  0  0  0  0
M  END
$$$$
