ZINC000000039251      none
 OpenBabel11202420153D

 39 42  0  0  0  0  0  0  0  0999 V2000
   33.7338   37.0248   55.1673 C   0  0  0  0  0  0  0  0  0  0  0  0
   33.4069   37.4926   56.5166 N   0  0  0  0  0  0  0  0  0  0  0  0
   33.5926   38.7415   56.9841 C   0  0  0  0  0  0  0  0  0  0  0  0
   34.0577   39.6669   56.3454 O   0  0  0  0  0  0  0  0  0  0  0  0
   33.1854   38.8111   58.2656 N   0  0  0  0  0  0  0  0  0  0  0  0
   33.2285   40.0037   59.1153 C   0  0  0  0  0  0  0  0  0  0  0  0
   32.7162   37.5559   58.6457 C   0  0  0  0  0  0  0  0  0  0  0  0
   32.1870   37.0549   59.8254 C   0  0  0  0  0  0  0  0  0  0  0  0
   31.8020   35.7306   59.8984 C   0  0  0  0  0  0  0  0  0  0  0  0
   31.2273   35.1859   61.1806 C   0  0  0  0  0  0  0  0  0  0  0  0
   31.1826   36.2500   62.1864 N   0  0  0  0  0  0  0  0  0  0  0  0
   30.1404   37.0804   62.3703 C   0  0  0  0  0  0  0  0  0  0  0  0
   29.1030   37.0667   61.7388 O   0  0  0  0  0  0  0  0  0  0  0  0
   30.4677   38.0105   63.4717 C   0  0  0  0  0  0  0  0  0  0  0  0
   29.7969   39.0544   64.0884 C   0  0  0  0  0  0  0  0  0  0  0  0
   30.4076   39.7490   65.1207 C   0  0  0  0  0  0  0  0  0  0  0  0
   31.6803   39.4077   65.5383 C   0  0  0  0  0  0  0  0  0  0  0  0
   32.3633   38.3655   64.9310 C   0  0  0  0  0  0  0  0  0  0  0  0
   31.7652   37.6621   63.8977 C   0  0  0  0  0  0  0  0  0  0  0  0
   32.1807   36.5291   63.0443 C   0  0  0  0  0  0  0  0  0  0  0  0
   33.2448   35.9472   63.1071 O   0  0  0  0  0  0  0  0  0  0  0  0
   31.9413   34.9015   58.7985 C   0  0  0  0  0  0  0  0  0  0  0  0
   32.4669   35.3915   57.6192 C   0  0  0  0  0  0  0  0  0  0  0  0
   32.8567   36.7196   57.5364 C   0  0  0  0  0  0  0  0  0  0  0  0
   32.8709   37.1629   54.5160 H   0  0  0  0  0  0  0  0  0  0  0  0
   34.5772   37.5959   54.7792 H   0  0  0  0  0  0  0  0  0  0  0  0
   33.9966   35.9675   55.2031 H   0  0  0  0  0  0  0  0  0  0  0  0
   34.1831   40.0416   59.6400 H   0  0  0  0  0  0  0  0  0  0  0  0
   33.1180   40.8945   58.4970 H   0  0  0  0  0  0  0  0  0  0  0  0
   32.4164   39.9622   59.8412 H   0  0  0  0  0  0  0  0  0  0  0  0
   32.0767   37.6988   60.6855 H   0  0  0  0  0  0  0  0  0  0  0  0
   30.2184   34.8158   60.9981 H   0  0  0  0  0  0  0  0  0  0  0  0
   31.8538   34.3705   61.5420 H   0  0  0  0  0  0  0  0  0  0  0  0
   28.8024   39.3254   63.7663 H   0  0  0  0  0  0  0  0  0  0  0  0
   29.8855   40.5627   65.6020 H   0  0  0  0  0  0  0  0  0  0  0  0
   32.1458   39.9566   66.3436 H   0  0  0  0  0  0  0  0  0  0  0  0
   33.3571   38.1028   65.2618 H   0  0  0  0  0  0  0  0  0  0  0  0
   31.6380   33.8670   58.8631 H   0  0  0  0  0  0  0  0  0  0  0  0
   32.5744   34.7416   56.7633 H   0  0  0  0  0  0  0  0  0  0  0  0
  1  2  1  0  0  0  0
  1 25  1  0  0  0  0
  1 26  1  0  0  0  0
  1 27  1  0  0  0  0
  2 24  1  0  0  0  0
  2  3  1  0  0  0  0
  3  4  2  0  0  0  0
  3  5  1  0  0  0  0
  5  6  1  0  0  0  0
  5  7  1  0  0  0  0
  6 28  1  0  0  0  0
  6 29  1  0  0  0  0
  6 30  1  0  0  0  0
  7 24  2  0  0  0  0
  7  8  1  0  0  0  0
  8  9  2  0  0  0  0
  8 31  1  0  0  0  0
  9 10  1  0  0  0  0
  9 22  1  0  0  0  0
 10 11  1  0  0  0  0
 10 32  1  0  0  0  0
 10 33  1  0  0  0  0
 11 20  1  0  0  0  0
 11 12  1  0  0  0  0
 12 13  2  0  0  0  0
 12 14  1  0  0  0  0
 14 19  2  0  0  0  0
 14 15  1  0  0  0  0
 15 16  2  0  0  0  0
 15 34  1  0  0  0  0
 16 17  1  0  0  0  0
 16 35  1  0  0  0  0
 17 18  2  0  0  0  0
 17 36  1  0  0  0  0
 18 19  1  0  0  0  0
 18 37  1  0  0  0  0
 19 20  1  0  0  0  0
 20 21  2  0  0  0  0
 22 23  2  0  0  0  0
 22 38  1  0  0  0  0
 23 24  1  0  0  0  0
 23 39  1  0  0  0  0
M  END
$$$$
