ZINC000000046842      none
 OpenBabel11202420153D

 40 40  0  0  0  0  0  0  0  0999 V2000
   32.2767   33.3298   57.1015 C   0  0  0  0  0  0  0  0  0  0  0  0
   33.3506   34.0239   57.9419 C   0  0  0  0  0  0  0  0  0  0  0  0
   32.7773   34.4318   59.2268 N   0  0  0  0  0  0  0  0  0  0  0  0
   32.8199   33.5184   60.3712 C   0  0  0  0  0  0  0  0  0  0  0  0
   31.5614   32.6483   60.3765 C   0  0  0  0  0  0  0  0  0  0  0  0
   32.2103   35.6477   59.3559 C   0  0  0  0  0  0  0  0  0  0  0  0
   32.1747   36.4068   58.4049 O   0  0  0  0  0  0  0  0  0  0  0  0
   31.6374   36.0556   60.6400 C   0  0  0  0  0  0  0  0  0  0  0  0
   32.5311   36.1790   62.1471 S   0  0  0  0  0  0  0  0  0  0  0  0
   31.1396   36.6788   62.9980 C   0  0  0  0  0  0  0  0  0  0  0  0
   31.1050   36.9784   64.3461 N   0  0  0  0  0  0  0  0  0  0  0  0
   32.2273   36.8840   65.0865 C   0  0  0  0  0  0  0  0  0  0  0  0
   33.2694   36.5356   64.5680 O   0  0  0  0  0  0  0  0  0  0  0  0
   32.1936   37.1758   66.4003 O   0  0  0  0  0  0  0  0  0  0  0  0
   33.4397   37.0523   67.1352 C   0  0  0  0  0  0  0  0  0  0  0  0
   30.0544   36.7414   62.1500 C   0  0  0  0  0  0  0  0  0  0  0  0
   28.7125   37.1418   62.5933 C   0  0  0  0  0  0  0  0  0  0  0  0
   27.8443   36.2116   63.0377 N   0  0  0  0  0  0  0  0  0  0  0  0
   28.3849   38.3130   62.5594 O   0  0  0  0  0  0  0  0  0  0  0  0
   30.3462   36.3915   60.8383 C   0  0  0  0  0  0  0  0  0  0  0  0
   29.3160   36.3871   59.7386 C   0  0  0  0  0  0  0  0  0  0  0  0
   32.7033   33.0263   56.1455 H   0  0  0  0  0  0  0  0  0  0  0  0
   31.9121   32.4504   57.6324 H   0  0  0  0  0  0  0  0  0  0  0  0
   31.4497   34.0183   56.9283 H   0  0  0  0  0  0  0  0  0  0  0  0
   33.7151   34.9034   57.4111 H   0  0  0  0  0  0  0  0  0  0  0  0
   34.1776   33.3353   58.1151 H   0  0  0  0  0  0  0  0  0  0  0  0
   33.7014   32.8816   60.2951 H   0  0  0  0  0  0  0  0  0  0  0  0
   32.8669   34.0951   61.2949 H   0  0  0  0  0  0  0  0  0  0  0  0
   31.5931   31.9686   61.2281 H   0  0  0  0  0  0  0  0  0  0  0  0
   30.6798   33.2851   60.4527 H   0  0  0  0  0  0  0  0  0  0  0  0
   31.5143   32.0716   59.4528 H   0  0  0  0  0  0  0  0  0  0  0  0
   30.2730   37.2566   64.7600 H   0  0  0  0  0  0  0  0  0  0  0  0
   34.1832   37.7233   66.7051 H   0  0  0  0  0  0  0  0  0  0  0  0
   33.2733   37.3159   68.1796 H   0  0  0  0  0  0  0  0  0  0  0  0
   33.7982   36.0249   67.0725 H   0  0  0  0  0  0  0  0  0  0  0  0
   28.1055   35.2779   63.0647 H   0  0  0  0  0  0  0  0  0  0  0  0
   26.9581   36.4760   63.3305 H   0  0  0  0  0  0  0  0  0  0  0  0
   29.2901   37.3666   59.2612 H   0  0  0  0  0  0  0  0  0  0  0  0
   29.5767   35.6295   58.9995 H   0  0  0  0  0  0  0  0  0  0  0  0
   28.3361   36.1620   60.1595 H   0  0  0  0  0  0  0  0  0  0  0  0
  1  2  1  0  0  0  0
  1 22  1  0  0  0  0
  1 23  1  0  0  0  0
  1 24  1  0  0  0  0
  2  3  1  0  0  0  0
  2 25  1  0  0  0  0
  2 26  1  0  0  0  0
  3  4  1  0  0  0  0
  3  6  1  0  0  0  0
  4  5  1  0  0  0  0
  4 27  1  0  0  0  0
  4 28  1  0  0  0  0
  5 29  1  0  0  0  0
  5 30  1  0  0  0  0
  5 31  1  0  0  0  0
  6  7  2  0  0  0  0
  6  8  1  0  0  0  0
  8 20  2  0  0  0  0
  8  9  1  0  0  0  0
  9 10  1  0  0  0  0
 10 11  1  0  0  0  0
 10 16  2  0  0  0  0
 11 12  1  0  0  0  0
 11 32  1  0  0  0  0
 12 13  2  0  0  0  0
 12 14  1  0  0  0  0
 14 15  1  0  0  0  0
 15 33  1  0  0  0  0
 15 34  1  0  0  0  0
 15 35  1  0  0  0  0
 16 17  1  0  0  0  0
 16 20  1  0  0  0  0
 17 18  1  0  0  0  0
 17 19  2  0  0  0  0
 18 36  1  0  0  0  0
 18 37  1  0  0  0  0
 20 21  1  0  0  0  0
 21 38  1  0  0  0  0
 21 39  1  0  0  0  0
 21 40  1  0  0  0  0
M  END
$$$$
