ZINC000000007490      none
 OpenBabel11202420153D

 29 30  0  0  1  0  0  0  0  0999 V2000
   32.6390   37.4908   57.7807 C   0  0  0  0  0  0  0  0  0  0  0  0
   32.2840   36.3006   58.4875 O   0  0  0  0  0  0  0  0  0  0  0  0
   31.8401   36.4497   59.7633 C   0  0  0  0  0  0  0  0  0  0  0  0
   31.4728   35.3369   60.5058 C   0  0  0  0  0  0  0  0  0  0  0  0
   31.0269   35.4908   61.8043 C   0  0  0  0  0  0  0  0  0  0  0  0
   30.9365   36.7535   62.3603 C   0  0  0  0  0  0  0  0  0  0  0  0
   30.4443   36.9189   63.7750 C   0  0  2  0  0  0  0  0  0  0  0  0
   29.7410   36.1262   64.0298 H   0  0  0  0  0  0  0  0  0  0  0  0
   29.8218   38.2395   63.9544 N   0  0  0  0  0  0  0  0  0  0  0  0
   30.5095   38.9208   64.8809 C   0  0  0  0  0  0  0  0  0  0  0  0
   30.2151   40.0468   65.2303 O   0  0  0  0  0  0  0  0  0  0  0  0
   31.5492   38.2480   65.3866 O   0  0  0  0  0  0  0  0  0  0  0  0
   31.6281   36.9343   64.7614 C   0  0  2  0  0  0  0  0  0  0  0  0
   31.5135   36.1484   65.5080 H   0  0  0  0  0  0  0  0  0  0  0  0
   32.9527   36.7755   64.0124 C   0  0  0  0  0  0  0  0  0  0  0  0
   34.0334   36.7927   64.9471 O   0  0  0  0  0  0  0  0  0  0  0  0
   31.2966   37.8647   61.6204 C   0  0  0  0  0  0  0  0  0  0  0  0
   31.7481   37.7157   60.3234 C   0  0  0  0  0  0  0  0  0  0  0  0
   31.7707   38.1464   57.7140 H   0  0  0  0  0  0  0  0  0  0  0  0
   32.9758   37.2307   56.7773 H   0  0  0  0  0  0  0  0  0  0  0  0
   33.4412   38.0032   58.3120 H   0  0  0  0  0  0  0  0  0  0  0  0
   31.5393   34.3508   60.0705 H   0  0  0  0  0  0  0  0  0  0  0  0
   30.7450   34.6244   62.3842 H   0  0  0  0  0  0  0  0  0  0  0  0
   29.0406   38.5639   63.4796 H   0  0  0  0  0  0  0  0  0  0  0  0
   32.9538   35.8283   63.4731 H   0  0  0  0  0  0  0  0  0  0  0  0
   33.0707   37.5964   63.3051 H   0  0  0  0  0  0  0  0  0  0  0  0
   34.0935   37.6079   65.4637 H   0  0  0  0  0  0  0  0  0  0  0  0
   31.2251   38.8499   62.0570 H   0  0  0  0  0  0  0  0  0  0  0  0
   32.0289   38.5839   59.7457 H   0  0  0  0  0  0  0  0  0  0  0  0
  1  2  1  0  0  0  0
  1 19  1  0  0  0  0
  1 20  1  0  0  0  0
  1 21  1  0  0  0  0
  2  3  1  0  0  0  0
  3 18  2  0  0  0  0
  3  4  1  0  0  0  0
  4  5  2  0  0  0  0
  4 22  1  0  0  0  0
  5  6  1  0  0  0  0
  5 23  1  0  0  0  0
  6  7  1  0  0  0  0
  6 17  2  0  0  0  0
  7  8  1  1  0  0  0
  7 13  1  0  0  0  0
  7  9  1  0  0  0  0
  9 10  1  0  0  0  0
  9 24  1  0  0  0  0
 10 11  2  0  0  0  0
 10 12  1  0  0  0  0
 12 13  1  0  0  0  0
 13 14  1  1  0  0  0
 13 15  1  0  0  0  0
 15 16  1  0  0  0  0
 15 25  1  0  0  0  0
 15 26  1  0  0  0  0
 16 27  1  0  0  0  0
 17 18  1  0  0  0  0
 17 28  1  0  0  0  0
 18 29  1  0  0  0  0
M  END
$$$$
