ZINC000000000644      none
 OpenBabel11202420153D

 46 48  0  0  1  0  0  0  0  0999 V2000
   27.2595   39.9019   62.8160 C   0  0  0  0  0  0  0  0  0  0  0  0
   28.2303   38.7530   62.9083 C   0  0  0  0  0  0  0  0  0  0  0  0
   27.9071   37.6561   62.5179 O   0  0  0  0  0  0  0  0  0  0  0  0
   29.4544   38.9481   63.4244 O   0  0  0  0  0  0  0  0  0  0  0  0
   30.2799   37.8705   63.4784 C   0  0  0  0  0  0  0  0  0  0  0  0
   30.6401   37.2045   62.3153 C   0  0  0  0  0  0  0  0  0  0  0  0
   31.4849   36.1115   62.3711 C   0  0  0  0  0  0  0  0  0  0  0  0
   31.8703   35.4003   61.0996 C   0  0  0  0  0  0  0  0  0  0  0  0
   31.9752   35.6605   63.5848 C   0  0  0  0  0  0  0  0  0  0  0  0
   31.6231   36.3100   64.7525 C   0  0  0  0  0  0  0  0  0  0  0  0
   30.7693   37.4189   64.7036 C   0  0  0  0  0  0  0  0  0  0  0  0
   30.3985   38.0878   65.9742 C   0  0  0  0  0  0  0  0  0  0  0  0
   31.1450   37.8540   67.0419 C   0  0  0  0  0  0  0  0  0  0  0  0
   30.8685   38.4778   68.3843 C   0  0  0  0  0  0  0  0  0  0  0  0
   29.4407   39.0155   68.4489 C   0  0  0  0  0  0  0  0  0  0  0  0
   29.2024   39.8924   67.2127 C   0  0  2  0  0  0  0  0  0  0  0  0
   30.0026   40.6269   67.1225 H   0  0  0  0  0  0  0  0  0  0  0  0
   27.8558   40.6080   67.3373 C   0  0  0  0  0  0  0  0  0  0  0  0
   29.1931   38.9858   65.9830 C   0  0  0  0  0  0  0  0  0  0  0  0
   32.3381   36.9291   66.9246 C   0  0  0  0  0  0  0  0  0  0  0  0
   32.6128   36.2855   68.2851 C   0  0  0  0  0  0  0  0  0  0  0  0
   33.5631   37.7387   66.4943 C   0  0  0  0  0  0  0  0  0  0  0  0
   32.0891   35.9056   65.9618 O   0  0  0  0  0  0  0  0  0  0  0  0
   26.6672   39.9515   63.7297 H   0  0  0  0  0  0  0  0  0  0  0  0
   26.5987   39.7516   61.9622 H   0  0  0  0  0  0  0  0  0  0  0  0
   27.8106   40.8339   62.6893 H   0  0  0  0  0  0  0  0  0  0  0  0
   30.2621   37.5440   61.3622 H   0  0  0  0  0  0  0  0  0  0  0  0
   31.1487   34.6102   60.8922 H   0  0  0  0  0  0  0  0  0  0  0  0
   31.8779   36.1115   60.2736 H   0  0  0  0  0  0  0  0  0  0  0  0
   32.8630   34.9650   61.2134 H   0  0  0  0  0  0  0  0  0  0  0  0
   32.6316   34.8035   63.6189 H   0  0  0  0  0  0  0  0  0  0  0  0
   31.0048   37.7276   69.1632 H   0  0  0  0  0  0  0  0  0  0  0  0
   31.5682   39.2970   68.5501 H   0  0  0  0  0  0  0  0  0  0  0  0
   29.3127   39.6114   69.3526 H   0  0  0  0  0  0  0  0  0  0  0  0
   28.7342   38.1855   68.4528 H   0  0  0  0  0  0  0  0  0  0  0  0
   27.0601   39.8700   67.4390 H   0  0  0  0  0  0  0  0  0  0  0  0
   27.8672   41.2534   68.2156 H   0  0  0  0  0  0  0  0  0  0  0  0
   27.6807   41.2105   66.4460 H   0  0  0  0  0  0  0  0  0  0  0  0
   29.1975   39.6013   65.0834 H   0  0  0  0  0  0  0  0  0  0  0  0
   28.2905   38.3747   65.9944 H   0  0  0  0  0  0  0  0  0  0  0  0
   33.4839   35.6348   68.2100 H   0  0  0  0  0  0  0  0  0  0  0  0
   32.8034   37.0642   69.0236 H   0  0  0  0  0  0  0  0  0  0  0  0
   31.7465   35.6989   68.5911 H   0  0  0  0  0  0  0  0  0  0  0  0
   33.3759   38.1908   65.5204 H   0  0  0  0  0  0  0  0  0  0  0  0
   33.7567   38.5219   67.2273 H   0  0  0  0  0  0  0  0  0  0  0  0
   34.4291   37.0801   66.4289 H   0  0  0  0  0  0  0  0  0  0  0  0
  1  2  1  0  0  0  0
  1 24  1  0  0  0  0
  1 25  1  0  0  0  0
  1 26  1  0  0  0  0
  2  3  2  0  0  0  0
  2  4  1  0  0  0  0
  4  5  1  0  0  0  0
  5 11  2  0  0  0  0
  5  6  1  0  0  0  0
  6  7  2  0  0  0  0
  6 27  1  0  0  0  0
  7  8  1  0  0  0  0
  7  9  1  0  0  0  0
  8 28  1  0  0  0  0
  8 29  1  0  0  0  0
  8 30  1  0  0  0  0
  9 10  2  0  0  0  0
  9 31  1  0  0  0  0
 10 23  1  0  0  0  0
 10 11  1  0  0  0  0
 11 12  1  0  0  0  0
 12 19  1  0  0  0  0
 12 13  2  0  0  0  0
 13 14  1  0  0  0  0
 13 20  1  0  0  0  0
 14 15  1  0  0  0  0
 14 32  1  0  0  0  0
 14 33  1  0  0  0  0
 15 16  1  0  0  0  0
 15 34  1  0  0  0  0
 15 35  1  0  0  0  0
 16 17  1  6  0  0  0
 16 18  1  0  0  0  0
 16 19  1  0  0  0  0
 18 36  1  0  0  0  0
 18 37  1  0  0  0  0
 18 38  1  0  0  0  0
 19 39  1  0  0  0  0
 19 40  1  0  0  0  0
 20 21  1  0  0  0  0
 20 22  1  0  0  0  0
 20 23  1  0  0  0  0
 21 41  1  0  0  0  0
 21 42  1  0  0  0  0
 21 43  1  0  0  0  0
 22 44  1  0  0  0  0
 22 45  1  0  0  0  0
 22 46  1  0  0  0  0
M  END
$$$$
