ZINC000000053966      none
 OpenBabel11202420153D

 24 25  0  0  0  0  0  0  0  0999 V2000
   34.0994   36.7657   53.9488 C   0  0  0  0  0  0  0  0  0  0  0  0
   34.2092   37.5458   55.2336 C   0  0  0  0  0  0  0  0  0  0  0  0
   34.8268   38.5904   55.2585 O   0  0  0  0  0  0  0  0  0  0  0  0
   33.5720   37.0444   56.4495 C   0  0  0  0  0  0  0  0  0  0  0  0
   33.3115   35.3500   56.8355 S   0  0  0  0  0  0  0  0  0  0  0  0
   32.5518   35.7925   58.3652 C   0  0  0  0  0  0  0  0  0  0  0  0
   32.0425   35.0064   59.3086 N   0  0  0  0  0  0  0  0  0  0  0  0
   31.5004   35.5155   60.4136 C   0  0  0  0  0  0  0  0  0  0  0  0
   31.0406   34.7805   61.2748 O   0  0  0  0  0  0  0  0  0  0  0  0
   31.4697   36.9719   60.5833 C   0  0  0  0  0  0  0  0  0  0  0  0
   30.8645   37.5861   61.8193 C   0  0  0  0  0  0  0  0  0  0  0  0
   31.9721   37.7239   59.6508 N   0  0  0  0  0  0  0  0  0  0  0  0
   32.5395   37.1432   58.4905 N   0  0  0  0  0  0  0  0  0  0  0  0
   33.0980   37.8014   57.4399 C   0  0  0  0  0  0  0  0  0  0  0  0
   33.1766   39.3057   57.3968 C   0  0  0  0  0  0  0  0  0  0  0  0
   33.0496   36.6649   53.6736 H   0  0  0  0  0  0  0  0  0  0  0  0
   34.6335   37.2919   53.1575 H   0  0  0  0  0  0  0  0  0  0  0  0
   34.5356   35.7763   54.0859 H   0  0  0  0  0  0  0  0  0  0  0  0
   31.6340   37.6993   62.5828 H   0  0  0  0  0  0  0  0  0  0  0  0
   30.4500   38.5638   61.5733 H   0  0  0  0  0  0  0  0  0  0  0  0
   30.0716   36.9395   62.1954 H   0  0  0  0  0  0  0  0  0  0  0  0
   34.1113   39.6339   57.8515 H   0  0  0  0  0  0  0  0  0  0  0  0
   33.1390   39.6419   56.3606 H   0  0  0  0  0  0  0  0  0  0  0  0
   32.3365   39.7294   57.9470 H   0  0  0  0  0  0  0  0  0  0  0  0
  1  2  1  0  0  0  0
  1 16  1  0  0  0  0
  1 17  1  0  0  0  0
  1 18  1  0  0  0  0
  2  3  2  0  0  0  0
  2  4  1  0  0  0  0
  4 14  2  0  0  0  0
  4  5  1  0  0  0  0
  5  6  1  0  0  0  0
  6 13  1  0  0  0  0
  6  7  2  0  0  0  0
  7  8  1  0  0  0  0
  8  9  2  0  0  0  0
  8 10  1  0  0  0  0
 10 11  1  0  0  0  0
 10 12  2  0  0  0  0
 11 19  1  0  0  0  0
 11 20  1  0  0  0  0
 11 21  1  0  0  0  0
 12 13  1  0  0  0  0
 13 14  1  0  0  0  0
 14 15  1  0  0  0  0
 15 22  1  0  0  0  0
 15 23  1  0  0  0  0
 15 24  1  0  0  0  0
M  END
$$$$
