ZINC000000041337      none
 OpenBabel11202420153D

 32 33  0  0  0  0  0  0  0  0999 V2000
   33.3917   34.4322   53.6939 C   0  0  0  0  0  0  0  0  0  0  0  0
   32.9533   34.3567   55.1577 C   0  0  0  0  0  0  0  0  0  0  0  0
   33.0893   35.6653   55.7719 O   0  0  0  0  0  0  0  0  0  0  0  0
   32.7420   35.7711   57.0697 C   0  0  0  0  0  0  0  0  0  0  0  0
   32.3364   34.7965   57.6715 O   0  0  0  0  0  0  0  0  0  0  0  0
   32.8540   37.0687   57.7589 C   0  0  0  0  0  0  0  0  0  0  0  0
   33.3204   38.1924   57.0710 C   0  0  0  0  0  0  0  0  0  0  0  0
   33.4232   39.4025   57.7215 C   0  0  0  0  0  0  0  0  0  0  0  0
   33.0608   39.5139   59.0545 C   0  0  0  0  0  0  0  0  0  0  0  0
   32.6040   38.4124   59.7489 C   0  0  0  0  0  0  0  0  0  0  0  0
   32.4934   37.1839   59.1104 C   0  0  0  0  0  0  0  0  0  0  0  0
   32.0271   36.0734   59.8069 N   0  0  0  0  0  0  0  0  0  0  0  0
   32.2445   35.9695   61.1330 C   0  0  0  0  0  0  0  0  0  0  0  0
   32.8486   36.8471   61.7212 O   0  0  0  0  0  0  0  0  0  0  0  0
   31.7531   34.8000   61.8665 C   0  0  0  0  0  0  0  0  0  0  0  0
   30.8630   34.8308   62.9033 C   0  0  0  0  0  0  0  0  0  0  0  0
   30.5750   33.5857   63.4095 C   0  0  0  0  0  0  0  0  0  0  0  0
   31.2061   32.5691   62.8098 C   0  0  0  0  0  0  0  0  0  0  0  0
   32.2086   33.1317   61.5491 S   0  0  0  0  0  0  0  0  0  0  0  0
   32.7652   35.1495   53.1634 H   0  0  0  0  0  0  0  0  0  0  0  0
   34.4327   34.7513   53.6423 H   0  0  0  0  0  0  0  0  0  0  0  0
   33.2895   33.4499   53.2327 H   0  0  0  0  0  0  0  0  0  0  0  0
   33.5797   33.6395   55.6880 H   0  0  0  0  0  0  0  0  0  0  0  0
   31.9123   34.0376   55.2092 H   0  0  0  0  0  0  0  0  0  0  0  0
   33.6003   38.1120   56.0311 H   0  0  0  0  0  0  0  0  0  0  0  0
   33.7842   40.2698   57.1885 H   0  0  0  0  0  0  0  0  0  0  0  0
   33.1405   40.4681   59.5542 H   0  0  0  0  0  0  0  0  0  0  0  0
   32.3278   38.5067   60.7888 H   0  0  0  0  0  0  0  0  0  0  0  0
   31.5456   35.3740   59.3381 H   0  0  0  0  0  0  0  0  0  0  0  0
   30.4290   35.7425   63.2865 H   0  0  0  0  0  0  0  0  0  0  0  0
   29.8893   33.4384   64.2308 H   0  0  0  0  0  0  0  0  0  0  0  0
   31.0917   31.5308   63.0840 H   0  0  0  0  0  0  0  0  0  0  0  0
  1  2  1  0  0  0  0
  1 20  1  0  0  0  0
  1 21  1  0  0  0  0
  1 22  1  0  0  0  0
  2  3  1  0  0  0  0
  2 23  1  0  0  0  0
  2 24  1  0  0  0  0
  3  4  1  0  0  0  0
  4  5  2  0  0  0  0
  4  6  1  0  0  0  0
  6 11  2  0  0  0  0
  6  7  1  0  0  0  0
  7  8  2  0  0  0  0
  7 25  1  0  0  0  0
  8  9  1  0  0  0  0
  8 26  1  0  0  0  0
  9 10  2  0  0  0  0
  9 27  1  0  0  0  0
 10 11  1  0  0  0  0
 10 28  1  0  0  0  0
 11 12  1  0  0  0  0
 12 13  1  0  0  0  0
 12 29  1  0  0  0  0
 13 14  2  0  0  0  0
 13 15  1  0  0  0  0
 15 19  1  0  0  0  0
 15 16  2  0  0  0  0
 16 17  1  0  0  0  0
 16 30  1  0  0  0  0
 17 18  2  0  0  0  0
 17 31  1  0  0  0  0
 18 19  1  0  0  0  0
 18 32  1  0  0  0  0
M  END
$$$$
