ZINC000000032700      none
 OpenBabel11202420153D

 30 32  0  0  0  0  0  0  0  0999 V2000
   32.8653   34.9051   53.5830 C   0  0  0  0  0  0  0  0  0  0  0  0
   33.6479   33.7164   54.0783 C   0  0  0  0  0  0  0  0  0  0  0  0
   34.0928   32.7607   53.1855 C   0  0  0  0  0  0  0  0  0  0  0  0
   34.8161   31.6729   53.6385 C   0  0  0  0  0  0  0  0  0  0  0  0
   35.0856   31.5311   54.9875 C   0  0  0  0  0  0  0  0  0  0  0  0
   34.6393   32.4802   55.8857 C   0  0  0  0  0  0  0  0  0  0  0  0
   33.9179   33.5775   55.4332 C   0  0  0  0  0  0  0  0  0  0  0  0
   33.4633   34.5418   56.3418 N   0  0  0  0  0  0  0  0  0  0  0  0
   33.7922   35.8433   56.3138 C   0  0  0  0  0  0  0  0  0  0  0  0
   33.1487   36.4665   57.3667 C   0  0  0  0  0  0  0  0  0  0  0  0
   33.0940   37.7890   57.8559 C   0  0  0  0  0  0  0  0  0  0  0  0
   32.3385   38.0674   58.9480 C   0  0  0  0  0  0  0  0  0  0  0  0
   31.6084   37.0764   59.6078 C   0  0  0  0  0  0  0  0  0  0  0  0
   30.8040   37.4450   60.7949 N   0  0  0  0  0  0  0  0  0  0  0  0
   30.7854   38.5991   61.1834 O   0  0  0  0  0  0  0  0  0  0  0  0
   30.1611   36.5939   61.3831 O   0  0  0  0  0  0  0  0  0  0  0  0
   31.6163   35.7852   59.1915 C   0  0  0  0  0  0  0  0  0  0  0  0
   32.3796   35.4219   58.0616 C   0  0  0  0  0  0  0  0  0  0  0  0
   32.5942   34.2927   57.4102 N   0  0  0  0  0  0  0  0  0  0  0  0
   33.5359   35.7552   53.4578 H   0  0  0  0  0  0  0  0  0  0  0  0
   32.0904   35.1571   54.3072 H   0  0  0  0  0  0  0  0  0  0  0  0
   32.4032   34.6627   52.6260 H   0  0  0  0  0  0  0  0  0  0  0  0
   33.8794   32.8660   52.1320 H   0  0  0  0  0  0  0  0  0  0  0  0
   35.1663   30.9293   52.9378 H   0  0  0  0  0  0  0  0  0  0  0  0
   35.6466   30.6777   55.3388 H   0  0  0  0  0  0  0  0  0  0  0  0
   34.8511   32.3696   56.9389 H   0  0  0  0  0  0  0  0  0  0  0  0
   34.4440   36.3190   55.5959 H   0  0  0  0  0  0  0  0  0  0  0  0
   33.6490   38.5742   57.3641 H   0  0  0  0  0  0  0  0  0  0  0  0
   32.3012   39.0818   59.3170 H   0  0  0  0  0  0  0  0  0  0  0  0
   31.0416   35.0400   59.7213 H   0  0  0  0  0  0  0  0  0  0  0  0
  1  2  1  0  0  0  0
  1 20  1  0  0  0  0
  1 21  1  0  0  0  0
  1 22  1  0  0  0  0
  2  7  2  0  0  0  0
  2  3  1  0  0  0  0
  3  4  2  0  0  0  0
  3 23  1  0  0  0  0
  4  5  1  0  0  0  0
  4 24  1  0  0  0  0
  5  6  2  0  0  0  0
  5 25  1  0  0  0  0
  6  7  1  0  0  0  0
  6 26  1  0  0  0  0
  7  8  1  0  0  0  0
  8 19  1  0  0  0  0
  8  9  1  0  0  0  0
  9 10  2  0  0  0  0
  9 27  1  0  0  0  0
 10 18  1  0  0  0  0
 10 11  1  0  0  0  0
 11 12  2  0  0  0  0
 11 28  1  0  0  0  0
 12 13  1  0  0  0  0
 12 29  1  0  0  0  0
 13 14  1  0  0  0  0
 13 17  2  0  0  0  0
 14 15  2  0  0  0  0
 14 16  2  0  0  0  0
 17 18  1  0  0  0  0
 17 30  1  0  0  0  0
 18 19  2  0  0  0  0
M  END
$$$$
