ZINC000000026019      none
 OpenBabel11202420153D

 30 32  0  0  0  0  0  0  0  0999 V2000
   33.2458   40.7006   58.8473 N   0  0  0  0  0  0  0  0  0  0  0  0
   33.2930   39.4869   58.2632 C   0  0  0  0  0  0  0  0  0  0  0  0
   33.7740   39.3647   57.1531 O   0  0  0  0  0  0  0  0  0  0  0  0
   32.7613   38.3066   58.9706 C   0  0  0  0  0  0  0  0  0  0  0  0
   32.2081   38.4412   60.2440 C   0  0  0  0  0  0  0  0  0  0  0  0
   31.7034   37.3368   60.9056 C   0  0  0  0  0  0  0  0  0  0  0  0
   31.7486   36.0867   60.3258 C   0  0  0  0  0  0  0  0  0  0  0  0
   32.2980   35.9244   59.0506 C   0  0  0  0  0  0  0  0  0  0  0  0
   32.4720   34.8491   58.2426 N   0  0  0  0  0  0  0  0  0  0  0  0
   33.0461   35.2281   57.1269 C   0  0  0  0  0  0  0  0  0  0  0  0
   33.3962   34.3332   56.0039 C   0  0  0  0  0  0  0  0  0  0  0  0
   32.8399   34.5446   54.7408 C   0  0  0  0  0  0  0  0  0  0  0  0
   33.1725   33.7111   53.6952 C   0  0  0  0  0  0  0  0  0  0  0  0
   34.0513   32.6560   53.8981 C   0  0  0  0  0  0  0  0  0  0  0  0
   34.3724   31.8321   52.8673 O   0  0  0  0  0  0  0  0  0  0  0  0
   34.6032   32.4383   55.1554 C   0  0  0  0  0  0  0  0  0  0  0  0
   34.2796   33.2708   56.2048 C   0  0  0  0  0  0  0  0  0  0  0  0
   33.2733   36.5785   57.1592 N   0  0  0  0  0  0  0  0  0  0  0  0
   33.6861   37.1092   56.4600 H   0  0  0  0  0  0  0  0  0  0  0  0
   32.8079   37.0425   58.3680 C   0  0  0  0  0  0  0  0  0  0  0  0
   32.8621   40.7980   59.7329 H   0  0  0  0  0  0  0  0  0  0  0  0
   33.5954   41.4766   58.3821 H   0  0  0  0  0  0  0  0  0  0  0  0
   32.1695   39.4131   60.7134 H   0  0  0  0  0  0  0  0  0  0  0  0
   31.2735   37.4539   61.8894 H   0  0  0  0  0  0  0  0  0  0  0  0
   31.3547   35.2320   60.8557 H   0  0  0  0  0  0  0  0  0  0  0  0
   32.1530   35.3629   54.5827 H   0  0  0  0  0  0  0  0  0  0  0  0
   32.7457   33.8764   52.7169 H   0  0  0  0  0  0  0  0  0  0  0  0
   33.9406   32.0607   52.0330 H   0  0  0  0  0  0  0  0  0  0  0  0
   35.2864   31.6164   55.3099 H   0  0  0  0  0  0  0  0  0  0  0  0
   34.7090   33.1018   57.1812 H   0  0  0  0  0  0  0  0  0  0  0  0
  1  2  1  0  0  0  0
  1 21  1  0  0  0  0
  1 22  1  0  0  0  0
  2  3  2  0  0  0  0
  2  4  1  0  0  0  0
  4 20  2  0  0  0  0
  4  5  1  0  0  0  0
  5  6  2  0  0  0  0
  5 23  1  0  0  0  0
  6  7  1  0  0  0  0
  6 24  1  0  0  0  0
  7  8  2  0  0  0  0
  7 25  1  0  0  0  0
  8 20  1  0  0  0  0
  8  9  1  0  0  0  0
  9 10  2  0  0  0  0
 10 11  1  0  0  0  0
 10 18  1  0  0  0  0
 11 17  2  0  0  0  0
 11 12  1  0  0  0  0
 12 13  2  0  0  0  0
 12 26  1  0  0  0  0
 13 14  1  0  0  0  0
 13 27  1  0  0  0  0
 14 15  1  0  0  0  0
 14 16  2  0  0  0  0
 15 28  1  0  0  0  0
 16 17  1  0  0  0  0
 16 29  1  0  0  0  0
 17 30  1  0  0  0  0
 18 19  1  0  0  0  0
 18 20  1  0  0  0  0
M  END
$$$$
