ZINC000000036053      none
 OpenBabel11202420153D

 37 38  0  0  0  0  0  0  0  0999 V2000
   31.5606   39.4737   68.2029 C   0  0  0  0  0  0  0  0  0  0  0  0
   32.7012   38.6404   67.6780 C   0  0  0  0  0  0  0  0  0  0  0  0
   33.8092   38.7607   68.1547 O   0  0  0  0  0  0  0  0  0  0  0  0
   32.4690   37.6788   66.5853 C   0  0  0  0  0  0  0  0  0  0  0  0
   33.4986   37.3791   65.6873 C   0  0  0  0  0  0  0  0  0  0  0  0
   33.2807   36.4807   64.6658 C   0  0  0  0  0  0  0  0  0  0  0  0
   32.0333   35.8703   64.5268 C   0  0  0  0  0  0  0  0  0  0  0  0
   31.8003   34.9053   63.4282 C   0  0  0  0  0  0  0  0  0  0  0  0
   30.9622   34.0342   63.5521 O   0  0  0  0  0  0  0  0  0  0  0  0
   32.5181   34.9930   62.2907 N   0  0  0  0  0  0  0  0  0  0  0  0
   32.2834   34.0420   61.2015 C   0  0  0  0  0  0  0  0  0  0  0  0
   31.2085   34.5956   60.2638 C   0  0  0  0  0  0  0  0  0  0  0  0
   31.6701   35.9110   59.6914 C   0  0  0  0  0  0  0  0  0  0  0  0
   31.3722   37.0919   60.3455 C   0  0  0  0  0  0  0  0  0  0  0  0
   31.7997   38.2982   59.8230 C   0  0  0  0  0  0  0  0  0  0  0  0
   32.5161   38.3244   58.6411 C   0  0  0  0  0  0  0  0  0  0  0  0
   32.8095   37.1440   57.9844 C   0  0  0  0  0  0  0  0  0  0  0  0
   32.3865   35.9372   58.5095 C   0  0  0  0  0  0  0  0  0  0  0  0
   31.0036   36.1729   65.4190 C   0  0  0  0  0  0  0  0  0  0  0  0
   31.2205   37.0669   66.4446 C   0  0  0  0  0  0  0  0  0  0  0  0
   31.0685   38.9436   69.0184 H   0  0  0  0  0  0  0  0  0  0  0  0
   31.9444   40.4263   68.5682 H   0  0  0  0  0  0  0  0  0  0  0  0
   30.8435   39.6540   67.4021 H   0  0  0  0  0  0  0  0  0  0  0  0
   34.4638   37.8516   65.7945 H   0  0  0  0  0  0  0  0  0  0  0  0
   34.0753   36.2491   63.9721 H   0  0  0  0  0  0  0  0  0  0  0  0
   33.1871   35.6883   62.1918 H   0  0  0  0  0  0  0  0  0  0  0  0
   33.2085   33.8915   60.6448 H   0  0  0  0  0  0  0  0  0  0  0  0
   31.9495   33.0905   61.6154 H   0  0  0  0  0  0  0  0  0  0  0  0
   31.0339   33.8878   59.4533 H   0  0  0  0  0  0  0  0  0  0  0  0
   30.2834   34.7460   60.8201 H   0  0  0  0  0  0  0  0  0  0  0  0
   30.8086   37.0717   61.2665 H   0  0  0  0  0  0  0  0  0  0  0  0
   31.5702   39.2205   60.3359 H   0  0  0  0  0  0  0  0  0  0  0  0
   32.8463   39.2672   58.2306 H   0  0  0  0  0  0  0  0  0  0  0  0
   33.3689   37.1644   57.0608 H   0  0  0  0  0  0  0  0  0  0  0  0
   32.6154   35.0150   57.9963 H   0  0  0  0  0  0  0  0  0  0  0  0
   30.0375   35.7029   65.3079 H   0  0  0  0  0  0  0  0  0  0  0  0
   30.4248   37.2980   67.1373 H   0  0  0  0  0  0  0  0  0  0  0  0
  1  2  1  0  0  0  0
  1 21  1  0  0  0  0
  1 22  1  0  0  0  0
  1 23  1  0  0  0  0
  2  3  2  0  0  0  0
  2  4  1  0  0  0  0
  4 20  2  0  0  0  0
  4  5  1  0  0  0  0
  5  6  2  0  0  0  0
  5 24  1  0  0  0  0
  6  7  1  0  0  0  0
  6 25  1  0  0  0  0
  7  8  1  0  0  0  0
  7 19  2  0  0  0  0
  8  9  2  0  0  0  0
  8 10  1  0  0  0  0
 10 11  1  0  0  0  0
 10 26  1  0  0  0  0
 11 12  1  0  0  0  0
 11 27  1  0  0  0  0
 11 28  1  0  0  0  0
 12 13  1  0  0  0  0
 12 29  1  0  0  0  0
 12 30  1  0  0  0  0
 13 18  2  0  0  0  0
 13 14  1  0  0  0  0
 14 15  2  0  0  0  0
 14 31  1  0  0  0  0
 15 16  1  0  0  0  0
 15 32  1  0  0  0  0
 16 17  2  0  0  0  0
 16 33  1  0  0  0  0
 17 18  1  0  0  0  0
 17 34  1  0  0  0  0
 18 35  1  0  0  0  0
 19 20  1  0  0  0  0
 19 36  1  0  0  0  0
 20 37  1  0  0  0  0
M  END
$$$$
