ZINC000000053543      none
 OpenBabel11202420153D

 32 34  0  0  1  0  0  0  0  0999 V2000
   32.8003   36.4724   65.1647 C   0  0  0  0  0  0  0  0  0  0  0  0
   32.0227   35.9397   64.0603 O   0  0  0  0  0  0  0  0  0  0  0  0
   32.3044   36.4084   62.8345 C   0  0  0  0  0  0  0  0  0  0  0  0
   33.1722   37.2366   62.6892 O   0  0  0  0  0  0  0  0  0  0  0  0
   31.5384   35.9021   61.6396 C   0  0  2  0  0  0  0  0  0  0  0  0
   30.4779   36.1198   61.7657 H   0  0  0  0  0  0  0  0  0  0  0  0
   31.7437   34.3897   61.5001 C   0  0  0  0  0  0  0  0  0  0  0  0
   31.1785   33.9207   60.1562 C   0  0  0  0  0  0  0  0  0  0  0  0
   32.0664   34.4462   59.0221 C   0  0  0  0  0  0  0  0  0  0  0  0
   32.2832   35.9240   59.2277 C   0  0  0  0  0  0  0  0  0  0  0  0
   32.0490   36.5754   60.3874 C   0  0  0  0  0  0  0  0  0  0  0  0
   32.3433   37.9056   60.2398 N   0  0  0  0  0  0  0  0  0  0  0  0
   32.2555   38.5768   60.9346 H   0  0  0  0  0  0  0  0  0  0  0  0
   32.7791   38.1441   58.9679 C   0  0  0  0  0  0  0  0  0  0  0  0
   33.1934   39.3092   58.3256 C   0  0  0  0  0  0  0  0  0  0  0  0
   33.5790   39.1923   57.0015 C   0  0  0  0  0  0  0  0  0  0  0  0
   33.5602   37.9795   56.3302 C   0  0  0  0  0  0  0  0  0  0  0  0
   34.0624   37.9303   54.6690 Cl  0  0  0  0  0  0  0  0  0  0  0  0
   33.1562   36.8155   56.9380 C   0  0  0  0  0  0  0  0  0  0  0  0
   32.7607   36.9058   58.2762 C   0  0  0  0  0  0  0  0  0  0  0  0
   32.4724   36.0106   66.0961 H   0  0  0  0  0  0  0  0  0  0  0  0
   32.6560   37.5512   65.2235 H   0  0  0  0  0  0  0  0  0  0  0  0
   33.8563   36.2552   65.0036 H   0  0  0  0  0  0  0  0  0  0  0  0
   32.8086   34.1618   61.5462 H   0  0  0  0  0  0  0  0  0  0  0  0
   31.2267   33.8765   62.3109 H   0  0  0  0  0  0  0  0  0  0  0  0
   30.1658   34.3047   60.0333 H   0  0  0  0  0  0  0  0  0  0  0  0
   31.1608   32.8312   60.1294 H   0  0  0  0  0  0  0  0  0  0  0  0
   31.5742   34.2784   58.0641 H   0  0  0  0  0  0  0  0  0  0  0  0
   33.0261   33.9297   59.0391 H   0  0  0  0  0  0  0  0  0  0  0  0
   33.2129   40.2599   58.8376 H   0  0  0  0  0  0  0  0  0  0  0  0
   33.9055   40.0759   56.4733 H   0  0  0  0  0  0  0  0  0  0  0  0
   33.1449   35.8750   56.4073 H   0  0  0  0  0  0  0  0  0  0  0  0
  1  2  1  0  0  0  0
  1 21  1  0  0  0  0
  1 22  1  0  0  0  0
  1 23  1  0  0  0  0
  2  3  1  0  0  0  0
  3  4  2  0  0  0  0
  3  5  1  0  0  0  0
  5  6  1  1  0  0  0
  5 11  1  0  0  0  0
  5  7  1  0  0  0  0
  7  8  1  0  0  0  0
  7 24  1  0  0  0  0
  7 25  1  0  0  0  0
  8  9  1  0  0  0  0
  8 26  1  0  0  0  0
  8 27  1  0  0  0  0
  9 10  1  0  0  0  0
  9 28  1  0  0  0  0
  9 29  1  0  0  0  0
 10 20  1  0  0  0  0
 10 11  2  0  0  0  0
 11 12  1  0  0  0  0
 12 13  1  0  0  0  0
 12 14  1  0  0  0  0
 14 20  2  0  0  0  0
 14 15  1  0  0  0  0
 15 16  2  0  0  0  0
 15 30  1  0  0  0  0
 16 17  1  0  0  0  0
 16 31  1  0  0  0  0
 17 18  1  0  0  0  0
 17 19  2  0  0  0  0
 19 20  1  0  0  0  0
 19 32  1  0  0  0  0
M  END
$$$$
