ZINC000000055004      none
 OpenBabel11202420153D

 42 43  0  0  1  0  0  0  0  0999 V2000
   31.4598   42.2929   68.1118 C   0  0  0  0  0  0  0  0  0  0  0  0
   30.7730   40.9484   67.8635 C   0  0  0  0  0  0  0  0  0  0  0  0
   31.5063   40.1991   66.7493 C   0  0  1  0  0  0  0  0  0  0  0  0
   31.4832   40.7931   65.8357 H   0  0  0  0  0  0  0  0  0  0  0  0
   32.9591   39.9603   67.1657 C   0  0  0  0  0  0  0  0  0  0  0  0
   30.8297   38.8749   66.5047 C   0  0  0  0  0  0  0  0  0  0  0  0
   30.7932   38.2682   65.3899 N   0  0  0  0  0  0  0  0  0  0  0  0
   30.1029   37.0580   65.4133 N   0  0  0  0  0  0  0  0  0  0  0  0
   29.9225   36.2360   64.3606 C   0  0  0  0  0  0  0  0  0  0  0  0
   29.3003   35.2005   64.4974 O   0  0  0  0  0  0  0  0  0  0  0  0
   30.4810   36.5935   63.0396 C   0  0  0  0  0  0  0  0  0  0  0  0
   29.6356   36.7488   61.9397 C   0  0  0  0  0  0  0  0  0  0  0  0
   30.1629   37.0883   60.7110 C   0  0  0  0  0  0  0  0  0  0  0  0
   31.5277   37.2630   60.5647 C   0  0  0  0  0  0  0  0  0  0  0  0
   32.3718   37.1054   61.6497 C   0  0  0  0  0  0  0  0  0  0  0  0
   31.8570   36.7717   62.8853 C   0  0  0  0  0  0  0  0  0  0  0  0
   29.6088   36.8228   66.7801 C   0  0  1  0  0  0  0  0  0  0  0  0
   28.1817   36.7507   66.7951 O   0  0  0  0  0  0  0  0  0  0  0  0
   30.2122   35.5673   67.3553 C   0  0  0  0  0  0  0  0  0  0  0  0
   31.4109   35.4730   67.4746 O   0  0  0  0  0  0  0  0  0  0  0  0
   29.4181   34.5539   67.7348 O   0  0  0  0  0  0  0  0  0  0  0  0
   30.0682   33.3756   68.2800 C   0  0  0  0  0  0  0  0  0  0  0  0
   30.0988   38.0650   67.5518 C   0  0  0  0  0  0  0  0  0  0  0  0
   31.4368   42.8868   67.1983 H   0  0  0  0  0  0  0  0  0  0  0  0
   30.9372   42.8266   68.9056 H   0  0  0  0  0  0  0  0  0  0  0  0
   32.4947   42.1227   68.4086 H   0  0  0  0  0  0  0  0  0  0  0  0
   29.7380   41.1185   67.5668 H   0  0  0  0  0  0  0  0  0  0  0  0
   30.7959   40.3543   68.7772 H   0  0  0  0  0  0  0  0  0  0  0  0
   33.4484   40.9182   67.3428 H   0  0  0  0  0  0  0  0  0  0  0  0
   32.9822   39.3663   68.0795 H   0  0  0  0  0  0  0  0  0  0  0  0
   33.4816   39.4265   66.3720 H   0  0  0  0  0  0  0  0  0  0  0  0
   28.5707   36.6079   62.0514 H   0  0  0  0  0  0  0  0  0  0  0  0
   29.5095   37.2131   59.8602 H   0  0  0  0  0  0  0  0  0  0  0  0
   31.9359   37.5240   59.5995 H   0  0  0  0  0  0  0  0  0  0  0  0
   33.4361   37.2436   61.5289 H   0  0  0  0  0  0  0  0  0  0  0  0
   32.5169   36.6483   63.7312 H   0  0  0  0  0  0  0  0  0  0  0  0
   27.7442   37.5446   66.4584 H   0  0  0  0  0  0  0  0  0  0  0  0
   30.7433   32.9554   67.5343 H   0  0  0  0  0  0  0  0  0  0  0  0
   30.6353   33.6521   69.1688 H   0  0  0  0  0  0  0  0  0  0  0  0
   29.3141   32.6349   68.5460 H   0  0  0  0  0  0  0  0  0  0  0  0
   29.2536   38.6268   67.9492 H   0  0  0  0  0  0  0  0  0  0  0  0
   30.7756   37.7741   68.3552 H   0  0  0  0  0  0  0  0  0  0  0  0
  1  2  1  0  0  0  0
  1 24  1  0  0  0  0
  1 25  1  0  0  0  0
  1 26  1  0  0  0  0
  2  3  1  0  0  0  0
  2 27  1  0  0  0  0
  2 28  1  0  0  0  0
  3  4  1  6  0  0  0
  3  5  1  0  0  0  0
  3  6  1  0  0  0  0
  5 29  1  0  0  0  0
  5 30  1  0  0  0  0
  5 31  1  0  0  0  0
  6 23  1  0  0  0  0
  6  7  2  0  0  0  0
  7  8  1  0  0  0  0
  8  9  1  0  0  0  0
  8 17  1  0  0  0  0
  9 10  2  0  0  0  0
  9 11  1  0  0  0  0
 11 16  2  0  0  0  0
 11 12  1  0  0  0  0
 12 13  2  0  0  0  0
 12 32  1  0  0  0  0
 13 14  1  0  0  0  0
 13 33  1  0  0  0  0
 14 15  2  0  0  0  0
 14 34  1  0  0  0  0
 15 16  1  0  0  0  0
 15 35  1  0  0  0  0
 16 36  1  0  0  0  0
 17 18  1  1  0  0  0
 17 19  1  0  0  0  0
 17 23  1  0  0  0  0
 18 37  1  0  0  0  0
 19 20  2  0  0  0  0
 19 21  1  0  0  0  0
 21 22  1  0  0  0  0
 22 38  1  0  0  0  0
 22 39  1  0  0  0  0
 22 40  1  0  0  0  0
 23 41  1  0  0  0  0
 23 42  1  0  0  0  0
M  END
$$$$
