ZINC000000038934      none
 OpenBabel11202420153D

 29 31  0  0  0  0  0  0  0  0999 V2000
   32.3362   34.7862   58.7465 O   0  0  0  0  0  0  0  0  0  0  0  0
   32.3823   35.9283   59.1730 C   0  0  0  0  0  0  0  0  0  0  0  0
   31.9985   36.2339   60.5012 C   0  0  0  0  0  0  0  0  0  0  0  0
   32.0640   37.5196   60.9382 C   0  0  0  0  0  0  0  0  0  0  0  0
   31.6597   37.8189   62.3267 C   0  0  0  0  0  0  0  0  0  0  0  0
   30.6122   38.7089   62.5755 C   0  0  0  0  0  0  0  0  0  0  0  0
   30.2342   38.9822   63.8737 C   0  0  0  0  0  0  0  0  0  0  0  0
   30.8959   38.3856   64.9315 C   0  0  0  0  0  0  0  0  0  0  0  0
   31.9416   37.5038   64.6945 C   0  0  0  0  0  0  0  0  0  0  0  0
   32.5883   36.9209   65.7381 O   0  0  0  0  0  0  0  0  0  0  0  0
   32.3265   37.2181   63.3954 C   0  0  0  0  0  0  0  0  0  0  0  0
   32.4823   38.5272   60.1566 O   0  0  0  0  0  0  0  0  0  0  0  0
   32.8675   38.3359   58.8775 C   0  0  0  0  0  0  0  0  0  0  0  0
   33.2942   39.4012   58.0957 C   0  0  0  0  0  0  0  0  0  0  0  0
   33.6855   39.1875   56.7897 C   0  0  0  0  0  0  0  0  0  0  0  0
   33.6588   37.9163   56.2410 C   0  0  0  0  0  0  0  0  0  0  0  0
   33.2373   36.8380   57.0007 C   0  0  0  0  0  0  0  0  0  0  0  0
   33.2102   35.5917   56.4643 O   0  0  0  0  0  0  0  0  0  0  0  0
   32.8390   37.0448   58.3260 C   0  0  0  0  0  0  0  0  0  0  0  0
   31.6568   35.4514   61.1624 H   0  0  0  0  0  0  0  0  0  0  0  0
   30.0963   39.1800   61.7519 H   0  0  0  0  0  0  0  0  0  0  0  0
   29.4217   39.6676   64.0647 H   0  0  0  0  0  0  0  0  0  0  0  0
   30.5981   38.6068   65.9458 H   0  0  0  0  0  0  0  0  0  0  0  0
   32.2497   37.1815   66.6057 H   0  0  0  0  0  0  0  0  0  0  0  0
   33.1404   36.5329   63.2098 H   0  0  0  0  0  0  0  0  0  0  0  0
   33.3241   40.3975   58.5116 H   0  0  0  0  0  0  0  0  0  0  0  0
   34.0161   40.0215   56.1883 H   0  0  0  0  0  0  0  0  0  0  0  0
   33.9682   37.7653   55.2173 H   0  0  0  0  0  0  0  0  0  0  0  0
   33.5034   35.5533   55.5437 H   0  0  0  0  0  0  0  0  0  0  0  0
  1  2  2  0  0  0  0
  2 19  1  0  0  0  0
  2  3  1  0  0  0  0
  3  4  2  0  0  0  0
  3 20  1  0  0  0  0
  4  5  1  0  0  0  0
  4 12  1  0  0  0  0
  5 11  2  0  0  0  0
  5  6  1  0  0  0  0
  6  7  2  0  0  0  0
  6 21  1  0  0  0  0
  7  8  1  0  0  0  0
  7 22  1  0  0  0  0
  8  9  2  0  0  0  0
  8 23  1  0  0  0  0
  9 10  1  0  0  0  0
  9 11  1  0  0  0  0
 10 24  1  0  0  0  0
 11 25  1  0  0  0  0
 12 13  1  0  0  0  0
 13 19  2  0  0  0  0
 13 14  1  0  0  0  0
 14 15  2  0  0  0  0
 14 26  1  0  0  0  0
 15 16  1  0  0  0  0
 15 27  1  0  0  0  0
 16 17  2  0  0  0  0
 16 28  1  0  0  0  0
 17 18  1  0  0  0  0
 17 19  1  0  0  0  0
 18 29  1  0  0  0  0
M  END
$$$$
