ZINC000000001640      none
 OpenBabel11202420153D

 27 27  0  0  0  0  0  0  0  0999 V2000
   34.6072   32.0546   53.9227 C   0  0  0  0  0  0  0  0  0  0  0  0
   34.8553   32.5979   55.3313 C   0  0  0  0  0  0  0  0  0  0  0  0
   35.3086   33.9883   55.2456 N   0  0  0  0  0  0  0  0  0  0  0  0
   34.4137   34.9785   55.0577 C   0  0  0  0  0  0  0  0  0  0  0  0
   33.2301   34.7177   54.9595 O   0  0  0  0  0  0  0  0  0  0  0  0
   34.8308   36.2577   54.9787 N   0  0  0  0  0  0  0  0  0  0  0  0
   33.8574   37.3345   54.7808 C   0  0  0  0  0  0  0  0  0  0  0  0
   33.3839   37.8361   56.1207 C   0  0  0  0  0  0  0  0  0  0  0  0
   33.2969   39.1954   56.3584 C   0  0  0  0  0  0  0  0  0  0  0  0
   32.8581   39.6562   57.5855 C   0  0  0  0  0  0  0  0  0  0  0  0
   32.5162   38.7584   58.5793 C   0  0  0  0  0  0  0  0  0  0  0  0
   32.6080   37.3983   58.3438 C   0  0  0  0  0  0  0  0  0  0  0  0
   32.1780   36.2701   59.5911 Cl  0  0  0  0  0  0  0  0  0  0  0  0
   33.0422   36.9375   57.1134 C   0  0  0  0  0  0  0  0  0  0  0  0
   35.5321   32.1005   53.3475 H   0  0  0  0  0  0  0  0  0  0  0  0
   34.2700   31.0201   53.9864 H   0  0  0  0  0  0  0  0  0  0  0  0
   33.8431   32.6563   53.4305 H   0  0  0  0  0  0  0  0  0  0  0  0
   35.6194   31.9962   55.8234 H   0  0  0  0  0  0  0  0  0  0  0  0
   33.9305   32.5521   55.9065 H   0  0  0  0  0  0  0  0  0  0  0  0
   36.2528   34.1964   55.3240 H   0  0  0  0  0  0  0  0  0  0  0  0
   35.7749   36.4657   55.0572 H   0  0  0  0  0  0  0  0  0  0  0  0
   34.3259   38.1514   54.2319 H   0  0  0  0  0  0  0  0  0  0  0  0
   33.0072   36.9561   54.2134 H   0  0  0  0  0  0  0  0  0  0  0  0
   33.5683   39.8974   55.5838 H   0  0  0  0  0  0  0  0  0  0  0  0
   32.7865   40.7181   57.7692 H   0  0  0  0  0  0  0  0  0  0  0  0
   32.1769   39.1186   59.5393 H   0  0  0  0  0  0  0  0  0  0  0  0
   33.1139   35.8758   56.9289 H   0  0  0  0  0  0  0  0  0  0  0  0
  1  2  1  0  0  0  0
  1 15  1  0  0  0  0
  1 16  1  0  0  0  0
  1 17  1  0  0  0  0
  2  3  1  0  0  0  0
  2 18  1  0  0  0  0
  2 19  1  0  0  0  0
  3  4  1  0  0  0  0
  3 20  1  0  0  0  0
  4  5  2  0  0  0  0
  4  6  1  0  0  0  0
  6  7  1  0  0  0  0
  6 21  1  0  0  0  0
  7  8  1  0  0  0  0
  7 22  1  0  0  0  0
  7 23  1  0  0  0  0
  8 14  2  0  0  0  0
  8  9  1  0  0  0  0
  9 10  2  0  0  0  0
  9 24  1  0  0  0  0
 10 11  1  0  0  0  0
 10 25  1  0  0  0  0
 11 12  2  0  0  0  0
 11 26  1  0  0  0  0
 12 13  1  0  0  0  0
 12 14  1  0  0  0  0
 14 27  1  0  0  0  0
M  END
$$$$
