ZINC000000002261      none
 OpenBabel11202420153D

 31 33  0  0  0  0  0  0  0  0999 V2000
   32.5838   36.7234   61.9043 C   0  0  0  0  0  0  0  0  0  0  0  0
   31.3641   37.7376   61.0242 S   0  0  0  0  0  0  0  0  0  0  0  0
   31.2445   39.0153   61.6344 O   0  0  0  0  0  0  0  0  0  0  0  0
   30.2133   36.9678   60.7043 O   0  0  0  0  0  0  0  0  0  0  0  0
   32.1123   38.0696   59.4638 C   0  0  0  0  0  0  0  0  0  0  0  0
   32.9044   39.1923   59.3044 C   0  0  0  0  0  0  0  0  0  0  0  0
   33.4925   39.4575   58.0842 C   0  0  0  0  0  0  0  0  0  0  0  0
   33.2870   38.5918   57.0119 C   0  0  0  0  0  0  0  0  0  0  0  0
   33.9167   38.8716   55.6976 C   0  0  0  0  0  0  0  0  0  0  0  0
   34.3002   37.9389   54.7819 C   0  0  0  0  0  0  0  0  0  0  0  0
   34.8311   38.6144   53.7190 N   0  0  0  0  0  0  0  0  0  0  0  0
   35.3651   38.1933   52.5350 C   0  0  0  0  0  0  0  0  0  0  0  0
   35.8304   39.0846   51.6350 C   0  0  0  0  0  0  0  0  0  0  0  0
   35.7708   40.4619   51.9054 C   0  0  0  0  0  0  0  0  0  0  0  0
   35.2410   40.8957   53.0805 C   0  0  0  0  0  0  0  0  0  0  0  0
   34.7592   39.9524   54.0112 C   0  0  0  0  0  0  0  0  0  0  0  0
   34.2056   40.0874   55.2072 N   0  0  0  0  0  0  0  0  0  0  0  0
   32.4834   37.4655   57.1765 C   0  0  0  0  0  0  0  0  0  0  0  0
   31.9049   37.2069   58.4027 C   0  0  0  0  0  0  0  0  0  0  0  0
   33.5134   37.2828   62.0094 H   0  0  0  0  0  0  0  0  0  0  0  0
   32.1994   36.4684   62.8919 H   0  0  0  0  0  0  0  0  0  0  0  0
   32.7714   35.8098   61.3402 H   0  0  0  0  0  0  0  0  0  0  0  0
   33.0628   39.8628   60.1361 H   0  0  0  0  0  0  0  0  0  0  0  0
   34.1112   40.3341   57.9609 H   0  0  0  0  0  0  0  0  0  0  0  0
   34.2037   36.8675   54.8780 H   0  0  0  0  0  0  0  0  0  0  0  0
   35.4158   37.1368   52.3169 H   0  0  0  0  0  0  0  0  0  0  0  0
   36.2510   38.7375   50.7028 H   0  0  0  0  0  0  0  0  0  0  0  0
   36.1443   41.1731   51.1835 H   0  0  0  0  0  0  0  0  0  0  0  0
   35.1905   41.9521   53.2989 H   0  0  0  0  0  0  0  0  0  0  0  0
   32.3172   36.7936   56.3475 H   0  0  0  0  0  0  0  0  0  0  0  0
   31.2852   36.3320   58.5325 H   0  0  0  0  0  0  0  0  0  0  0  0
  1  2  1  0  0  0  0
  1 20  1  0  0  0  0
  1 21  1  0  0  0  0
  1 22  1  0  0  0  0
  2  3  2  0  0  0  0
  2  4  2  0  0  0  0
  2  5  1  0  0  0  0
  5 19  2  0  0  0  0
  5  6  1  0  0  0  0
  6  7  2  0  0  0  0
  6 23  1  0  0  0  0
  7  8  1  0  0  0  0
  7 24  1  0  0  0  0
  8  9  1  0  0  0  0
  8 18  2  0  0  0  0
  9 17  1  0  0  0  0
  9 10  2  0  0  0  0
 10 11  1  0  0  0  0
 10 25  1  0  0  0  0
 11 16  1  0  0  0  0
 11 12  1  0  0  0  0
 12 13  2  0  0  0  0
 12 26  1  0  0  0  0
 13 14  1  0  0  0  0
 13 27  1  0  0  0  0
 14 15  2  0  0  0  0
 14 28  1  0  0  0  0
 15 16  1  0  0  0  0
 15 29  1  0  0  0  0
 16 17  2  0  0  0  0
 18 19  1  0  0  0  0
 18 30  1  0  0  0  0
 19 31  1  0  0  0  0
M  END
$$$$
