ZINC000000006344      none
 OpenBabel11202420153D

 34 35  0  0  1  0  0  0  0  0999 V2000
   33.5375   33.8013   58.4593 O   0  0  0  0  0  0  0  0  0  0  0  0
   32.8654   34.0940   59.4310 C   0  0  0  0  0  0  0  0  0  0  0  0
   32.7242   33.2281   60.4565 N   0  0  0  0  0  0  0  0  0  0  0  0
   33.1619   32.3632   60.4217 H   0  0  0  0  0  0  0  0  0  0  0  0
   31.9794   33.5581   61.5262 C   0  0  0  0  0  0  0  0  0  0  0  0
   31.8671   32.7600   62.4366 O   0  0  0  0  0  0  0  0  0  0  0  0
   31.3554   34.7437   61.6176 N   0  0  0  0  0  0  0  0  0  0  0  0
   30.5577   35.0441   62.8091 C   0  0  0  0  0  0  0  0  0  0  0  0
   30.8717   36.4626   63.2889 C   0  0  1  0  0  0  0  0  0  0  0  0
   32.3508   36.7614   63.5415 C   0  0  0  0  0  0  0  0  0  0  0  0
   32.7312   36.2398   64.8164 O   0  0  0  0  0  0  0  0  0  0  0  0
   30.0023   37.6003   62.7478 C   0  0  0  0  0  0  0  0  0  0  0  0
   29.8480   37.1431   64.1998 C   0  0  2  0  0  0  0  0  0  0  0  0
   28.9508   36.5802   64.4575 H   0  0  0  0  0  0  0  0  0  0  0  0
   30.3817   38.0709   65.2931 C   0  0  0  0  0  0  0  0  0  0  0  0
   29.3405   38.9512   65.7209 O   0  0  0  0  0  0  0  0  0  0  0  0
   31.4442   35.6730   60.6209 C   0  0  0  0  0  0  0  0  0  0  0  0
   32.1905   35.3977   59.5110 C   0  0  0  0  0  0  0  0  0  0  0  0
   32.3119   36.3821   58.4168 C   0  0  0  0  0  0  0  0  0  0  0  0
   32.8351   37.5788   58.6554 C   0  0  0  0  0  0  0  0  0  0  0  0
   32.8606   38.8886   57.2918 Br  0  0  0  0  0  0  0  0  0  0  0  0
   30.8001   34.3319   63.5978 H   0  0  0  0  0  0  0  0  0  0  0  0
   29.4979   34.9694   62.5652 H   0  0  0  0  0  0  0  0  0  0  0  0
   32.9540   36.2939   62.7631 H   0  0  0  0  0  0  0  0  0  0  0  0
   32.5114   37.8394   63.5274 H   0  0  0  0  0  0  0  0  0  0  0  0
   32.2345   36.6120   65.5577 H   0  0  0  0  0  0  0  0  0  0  0  0
   29.2069   37.3378   62.0504 H   0  0  0  0  0  0  0  0  0  0  0  0
   30.4841   38.5620   62.5716 H   0  0  0  0  0  0  0  0  0  0  0  0
   31.2131   38.6558   64.8994 H   0  0  0  0  0  0  0  0  0  0  0  0
   30.7248   37.4757   66.1393 H   0  0  0  0  0  0  0  0  0  0  0  0
   29.6084   39.5693   66.4148 H   0  0  0  0  0  0  0  0  0  0  0  0
   30.9314   36.6191   60.7114 H   0  0  0  0  0  0  0  0  0  0  0  0
   31.9753   36.1285   57.4225 H   0  0  0  0  0  0  0  0  0  0  0  0
   33.2459   37.8043   59.6285 H   0  0  0  0  0  0  0  0  0  0  0  0
  1  2  2  0  0  0  0
  2 18  1  0  0  0  0
  2  3  1  0  0  0  0
  3  4  1  0  0  0  0
  3  5  1  0  0  0  0
  5  6  2  0  0  0  0
  5  7  1  0  0  0  0
  7  8  1  0  0  0  0
  7 17  1  0  0  0  0
  8 22  1  0  0  0  0
  8 23  1  0  0  0  0
  9  8  1  6  0  0  0
  9 13  1  0  0  0  0
  9 10  1  0  0  0  0
  9 12  1  0  0  0  0
 10 11  1  0  0  0  0
 10 24  1  0  0  0  0
 10 25  1  0  0  0  0
 11 26  1  0  0  0  0
 12 13  1  0  0  0  0
 12 27  1  0  0  0  0
 12 28  1  0  0  0  0
 13 14  1  1  0  0  0
 13 15  1  0  0  0  0
 15 16  1  0  0  0  0
 15 29  1  0  0  0  0
 15 30  1  0  0  0  0
 16 31  1  0  0  0  0
 17 18  2  0  0  0  0
 17 32  1  0  0  0  0
 18 19  1  0  0  0  0
 19 20  2  0  0  0  0
 19 33  1  0  0  0  0
 20 21  1  0  0  0  0
 20 34  1  0  0  0  0
M  END
$$$$
