ZINC000000029798      none
 OpenBabel11202420163D

 30 30  0  0  0  0  0  0  0  0999 V2000
   30.6062   37.2682   63.0296 C   0  0  0  0  0  0  0  0  0  0  0  0
   30.8779   38.2287   61.9005 C   0  0  0  0  0  0  0  0  0  0  0  0
   30.6034   39.4036   62.0244 O   0  0  0  0  0  0  0  0  0  0  0  0
   31.4752   37.7420   60.6503 C   0  0  0  0  0  0  0  0  0  0  0  0
   32.2858   38.5880   59.8832 C   0  0  0  0  0  0  0  0  0  0  0  0
   32.8361   38.1314   58.7136 C   0  0  0  0  0  0  0  0  0  0  0  0
   32.5998   36.8252   58.2940 C   0  0  0  0  0  0  0  0  0  0  0  0
   33.1659   36.3636   57.1078 N   0  0  0  0  0  0  0  0  0  0  0  0
   33.4762   35.0590   56.9720 C   0  0  0  0  0  0  0  0  0  0  0  0
   33.2624   34.2871   57.8825 O   0  0  0  0  0  0  0  0  0  0  0  0
   34.0888   34.5597   55.6889 C   0  0  0  0  0  0  0  0  0  0  0  0
   34.3409   33.0545   55.7960 C   0  0  0  0  0  0  0  0  0  0  0  0
   33.1330   34.8354   54.5265 C   0  0  0  0  0  0  0  0  0  0  0  0
   31.7947   35.9806   59.0534 C   0  0  0  0  0  0  0  0  0  0  0  0
   31.2355   36.4305   60.2213 C   0  0  0  0  0  0  0  0  0  0  0  0
   30.9968   36.2840   62.7714 H   0  0  0  0  0  0  0  0  0  0  0  0
   31.0937   37.6263   63.9364 H   0  0  0  0  0  0  0  0  0  0  0  0
   29.5314   37.2000   63.1977 H   0  0  0  0  0  0  0  0  0  0  0  0
   32.4734   39.6001   60.2102 H   0  0  0  0  0  0  0  0  0  0  0  0
   33.4574   38.7846   58.1189 H   0  0  0  0  0  0  0  0  0  0  0  0
   33.3370   36.9811   56.3796 H   0  0  0  0  0  0  0  0  0  0  0  0
   35.0332   35.0747   55.5126 H   0  0  0  0  0  0  0  0  0  0  0  0
   33.3965   32.5396   55.9723 H   0  0  0  0  0  0  0  0  0  0  0  0
   34.7839   32.6934   54.8679 H   0  0  0  0  0  0  0  0  0  0  0  0
   35.0217   32.8582   56.6242 H   0  0  0  0  0  0  0  0  0  0  0  0
   32.9534   35.9078   54.4501 H   0  0  0  0  0  0  0  0  0  0  0  0
   33.5760   34.4743   53.5983 H   0  0  0  0  0  0  0  0  0  0  0  0
   32.1886   34.3205   54.7027 H   0  0  0  0  0  0  0  0  0  0  0  0
   31.6100   34.9695   58.7216 H   0  0  0  0  0  0  0  0  0  0  0  0
   30.6107   35.7747   60.8096 H   0  0  0  0  0  0  0  0  0  0  0  0
  1  2  1  0  0  0  0
  1 16  1  0  0  0  0
  1 17  1  0  0  0  0
  1 18  1  0  0  0  0
  2  3  2  0  0  0  0
  2  4  1  0  0  0  0
  4 15  2  0  0  0  0
  4  5  1  0  0  0  0
  5  6  2  0  0  0  0
  5 19  1  0  0  0  0
  6  7  1  0  0  0  0
  6 20  1  0  0  0  0
  7  8  1  0  0  0  0
  7 14  2  0  0  0  0
  8  9  1  0  0  0  0
  8 21  1  0  0  0  0
  9 10  2  0  0  0  0
  9 11  1  0  0  0  0
 11 12  1  0  0  0  0
 11 13  1  0  0  0  0
 11 22  1  0  0  0  0
 12 23  1  0  0  0  0
 12 24  1  0  0  0  0
 12 25  1  0  0  0  0
 13 26  1  0  0  0  0
 13 27  1  0  0  0  0
 13 28  1  0  0  0  0
 14 15  1  0  0  0  0
 14 29  1  0  0  0  0
 15 30  1  0  0  0  0
M  END
$$$$
