ZINC000000000550      none
 OpenBabel11202420153D

 24 25  0  0  1  0  0  0  0  0999 V2000
   32.4286   34.3894   62.8173 C   0  0  0  0  0  0  0  0  0  0  0  0
   32.1784   34.6387   61.3955 N   0  0  0  0  0  0  0  0  0  0  0  0
   32.6200   33.8542   60.4058 C   0  0  0  0  0  0  0  0  0  0  0  0
   33.2786   32.8483   60.5837 O   0  0  0  0  0  0  0  0  0  0  0  0
   32.2538   34.3032   59.1917 N   0  0  0  0  0  0  0  0  0  0  0  0
   31.4760   35.5342   59.4148 C   0  0  2  0  0  0  0  0  0  0  0  0
   30.4590   35.4185   59.0399 H   0  0  0  0  0  0  0  0  0  0  0  0
   32.1517   36.7136   58.7638 C   0  0  0  0  0  0  0  0  0  0  0  0
   32.0042   37.9784   59.3018 C   0  0  0  0  0  0  0  0  0  0  0  0
   32.6280   39.0592   58.7075 C   0  0  0  0  0  0  0  0  0  0  0  0
   33.3912   38.8770   57.5694 C   0  0  0  0  0  0  0  0  0  0  0  0
   33.5340   37.6131   57.0281 C   0  0  0  0  0  0  0  0  0  0  0  0
   32.9145   36.5313   57.6255 C   0  0  0  0  0  0  0  0  0  0  0  0
   31.4744   35.6863   60.9229 C   0  0  0  0  0  0  0  0  0  0  0  0
   30.9487   36.5667   61.5696 O   0  0  0  0  0  0  0  0  0  0  0  0
   33.0202   33.4805   62.9282 H   0  0  0  0  0  0  0  0  0  0  0  0
   32.9733   35.2318   63.2436 H   0  0  0  0  0  0  0  0  0  0  0  0
   31.4784   34.2702   63.3379 H   0  0  0  0  0  0  0  0  0  0  0  0
   32.4644   33.8978   58.3360 H   0  0  0  0  0  0  0  0  0  0  0  0
   31.4046   38.1213   60.1887 H   0  0  0  0  0  0  0  0  0  0  0  0
   32.5161   40.0468   59.1301 H   0  0  0  0  0  0  0  0  0  0  0  0
   33.8755   39.7221   57.1030 H   0  0  0  0  0  0  0  0  0  0  0  0
   34.1301   37.4708   56.1388 H   0  0  0  0  0  0  0  0  0  0  0  0
   33.0262   35.5438   57.2026 H   0  0  0  0  0  0  0  0  0  0  0  0
  1  2  1  0  0  0  0
  1 16  1  0  0  0  0
  1 17  1  0  0  0  0
  1 18  1  0  0  0  0
  2 14  1  0  0  0  0
  2  3  1  0  0  0  0
  3  4  2  0  0  0  0
  3  5  1  0  0  0  0
  5  6  1  0  0  0  0
  5 19  1  0  0  0  0
  6  7  1  6  0  0  0
  6  8  1  0  0  0  0
  6 14  1  0  0  0  0
  8 13  2  0  0  0  0
  8  9  1  0  0  0  0
  9 10  2  0  0  0  0
  9 20  1  0  0  0  0
 10 11  1  0  0  0  0
 10 21  1  0  0  0  0
 11 12  2  0  0  0  0
 11 22  1  0  0  0  0
 12 13  1  0  0  0  0
 12 23  1  0  0  0  0
 13 24  1  0  0  0  0
 14 15  2  0  0  0  0
M  END
$$$$
