ZINC000000045811      none
 OpenBabel11202420153D

 37 38  0  0  0  0  0  0  0  0999 V2000
   33.5155   35.7147   52.9176 C   0  0  0  0  0  0  0  0  0  0  0  0
   34.4735   35.8397   53.9704 O   0  0  0  0  0  0  0  0  0  0  0  0
   34.0013   36.1869   55.1960 C   0  0  0  0  0  0  0  0  0  0  0  0
   33.9082   37.5266   55.5479 C   0  0  0  0  0  0  0  0  0  0  0  0
   33.4256   37.8850   56.7877 C   0  0  0  0  0  0  0  0  0  0  0  0
   33.0372   36.8974   57.6988 C   0  0  0  0  0  0  0  0  0  0  0  0
   32.5259   37.2771   59.0250 C   0  0  0  0  0  0  0  0  0  0  0  0
   32.1645   36.3551   59.8726 N   0  0  0  0  0  0  0  0  0  0  0  0
   31.6942   36.7081   61.1083 C   0  0  0  0  0  0  0  0  0  0  0  0
   32.3512   36.2681   62.2599 C   0  0  0  0  0  0  0  0  0  0  0  0
   31.8764   36.6298   63.5024 C   0  0  0  0  0  0  0  0  0  0  0  0
   30.7409   37.4219   63.6105 C   0  0  0  0  0  0  0  0  0  0  0  0
   30.2731   37.7713   64.8376 O   0  0  0  0  0  0  0  0  0  0  0  0
   30.7768   38.9832   65.4031 C   0  0  0  0  0  0  0  0  0  0  0  0
   32.0792   39.2062   64.9435 F   0  0  0  0  0  0  0  0  0  0  0  0
   29.9581   40.0514   65.0213 F   0  0  0  0  0  0  0  0  0  0  0  0
   30.7861   38.8782   66.7981 F   0  0  0  0  0  0  0  0  0  0  0  0
   30.0819   37.8576   62.4686 C   0  0  0  0  0  0  0  0  0  0  0  0
   30.5523   37.5049   61.2218 C   0  0  0  0  0  0  0  0  0  0  0  0
   33.1309   35.5476   57.3435 C   0  0  0  0  0  0  0  0  0  0  0  0
   33.6113   35.1971   56.0967 C   0  0  0  0  0  0  0  0  0  0  0  0
   33.7042   33.8858   55.7480 O   0  0  0  0  0  0  0  0  0  0  0  0
   34.9319   33.2197   56.0493 C   0  0  0  0  0  0  0  0  0  0  0  0
   32.7866   34.9474   53.1788 H   0  0  0  0  0  0  0  0  0  0  0  0
   33.0052   36.6673   52.7756 H   0  0  0  0  0  0  0  0  0  0  0  0
   34.0238   35.4338   51.9952 H   0  0  0  0  0  0  0  0  0  0  0  0
   34.2113   38.2899   54.8465 H   0  0  0  0  0  0  0  0  0  0  0  0
   33.3503   38.9282   57.0571 H   0  0  0  0  0  0  0  0  0  0  0  0
   32.4541   38.3196   59.2980 H   0  0  0  0  0  0  0  0  0  0  0  0
   33.2317   35.6483   62.1768 H   0  0  0  0  0  0  0  0  0  0  0  0
   32.3857   36.2928   64.3932 H   0  0  0  0  0  0  0  0  0  0  0  0
   29.1991   38.4736   62.5573 H   0  0  0  0  0  0  0  0  0  0  0  0
   30.0387   37.8436   60.3343 H   0  0  0  0  0  0  0  0  0  0  0  0
   32.8280   34.7815   58.0420 H   0  0  0  0  0  0  0  0  0  0  0  0
   35.7522   33.7188   55.5336 H   0  0  0  0  0  0  0  0  0  0  0  0
   35.1070   33.2497   57.1249 H   0  0  0  0  0  0  0  0  0  0  0  0
   34.8729   32.1824   55.7197 H   0  0  0  0  0  0  0  0  0  0  0  0
  1  2  1  0  0  0  0
  1 24  1  0  0  0  0
  1 25  1  0  0  0  0
  1 26  1  0  0  0  0
  2  3  1  0  0  0  0
  3 21  2  0  0  0  0
  3  4  1  0  0  0  0
  4  5  2  0  0  0  0
  4 27  1  0  0  0  0
  5  6  1  0  0  0  0
  5 28  1  0  0  0  0
  6  7  1  0  0  0  0
  6 20  2  0  0  0  0
  7  8  2  0  0  0  0
  7 29  1  0  0  0  0
  8  9  1  0  0  0  0
  9 19  2  0  0  0  0
  9 10  1  0  0  0  0
 10 11  2  0  0  0  0
 10 30  1  0  0  0  0
 11 12  1  0  0  0  0
 11 31  1  0  0  0  0
 12 13  1  0  0  0  0
 12 18  2  0  0  0  0
 13 14  1  0  0  0  0
 14 15  1  0  0  0  0
 14 16  1  0  0  0  0
 14 17  1  0  0  0  0
 18 19  1  0  0  0  0
 18 32  1  0  0  0  0
 19 33  1  0  0  0  0
 20 21  1  0  0  0  0
 20 34  1  0  0  0  0
 21 22  1  0  0  0  0
 22 23  1  0  0  0  0
 23 35  1  0  0  0  0
 23 36  1  0  0  0  0
 23 37  1  0  0  0  0
M  END
$$$$
