ZINC000000048754      none
 OpenBabel11202420153D

 34 35  0  0  0  0  0  0  0  0999 V2000
   32.3733   33.0087   61.8501 C   0  0  0  0  0  0  0  0  0  0  0  0
   32.6756   33.9449   60.7821 O   0  0  0  0  0  0  0  0  0  0  0  0
   31.8520   35.0036   60.6449 C   0  0  0  0  0  0  0  0  0  0  0  0
   30.9069   35.1403   61.3976 O   0  0  0  0  0  0  0  0  0  0  0  0
   32.0962   35.9910   59.5870 C   0  0  0  0  0  0  0  0  0  0  0  0
   31.7509   37.3232   59.7061 C   0  0  0  0  0  0  0  0  0  0  0  0
   31.1451   37.8807   60.8113 N   0  0  0  0  0  0  0  0  0  0  0  0
   31.7565   37.8320   62.0114 C   0  0  0  0  0  0  0  0  0  0  0  0
   32.8435   37.2956   62.1191 O   0  0  0  0  0  0  0  0  0  0  0  0
   31.1125   38.4247   63.1860 C   0  0  0  0  0  0  0  0  0  0  0  0
   31.6325   38.4443   64.4503 C   0  0  0  0  0  0  0  0  0  0  0  0
   30.8159   39.0664   65.3642 C   0  0  0  0  0  0  0  0  0  0  0  0
   29.6667   39.5405   64.8686 C   0  0  0  0  0  0  0  0  0  0  0  0
   29.5504   39.2317   63.1946 S   0  0  0  0  0  0  0  0  0  0  0  0
   32.1777   38.1826   58.2961 S   0  0  0  0  0  0  0  0  0  0  0  0
   32.8271   36.7373   57.5378 C   0  0  0  0  0  0  0  0  0  0  0  0
   33.3956   36.6857   56.2485 C   0  0  0  0  0  0  0  0  0  0  0  0
   32.9217   37.6341   55.1775 C   0  0  0  0  0  0  0  0  0  0  0  0
   34.2675   35.8767   56.0011 O   0  0  0  0  0  0  0  0  0  0  0  0
   32.6945   35.6710   58.3785 C   0  0  0  0  0  0  0  0  0  0  0  0
   33.1536   34.2794   58.0267 C   0  0  0  0  0  0  0  0  0  0  0  0
   31.3796   32.5886   61.6946 H   0  0  0  0  0  0  0  0  0  0  0  0
   33.1111   32.2064   61.8496 H   0  0  0  0  0  0  0  0  0  0  0  0
   32.4023   33.5284   62.8079 H   0  0  0  0  0  0  0  0  0  0  0  0
   30.2786   38.3082   60.7254 H   0  0  0  0  0  0  0  0  0  0  0  0
   32.5894   38.0133   64.7057 H   0  0  0  0  0  0  0  0  0  0  0  0
   31.0822   39.1655   66.4061 H   0  0  0  0  0  0  0  0  0  0  0  0
   28.9153   40.0544   65.4498 H   0  0  0  0  0  0  0  0  0  0  0  0
   33.5211   38.5439   55.2068 H   0  0  0  0  0  0  0  0  0  0  0  0
   33.0266   37.1611   54.2011 H   0  0  0  0  0  0  0  0  0  0  0  0
   31.8746   37.8830   55.3500 H   0  0  0  0  0  0  0  0  0  0  0  0
   34.1875   34.1465   58.3450 H   0  0  0  0  0  0  0  0  0  0  0  0
   32.5211   33.5495   58.5320 H   0  0  0  0  0  0  0  0  0  0  0  0
   33.0841   34.1356   56.9484 H   0  0  0  0  0  0  0  0  0  0  0  0
  1  2  1  0  0  0  0
  1 22  1  0  0  0  0
  1 23  1  0  0  0  0
  1 24  1  0  0  0  0
  2  3  1  0  0  0  0
  3  4  2  0  0  0  0
  3  5  1  0  0  0  0
  5 20  1  0  0  0  0
  5  6  2  0  0  0  0
  6  7  1  0  0  0  0
  6 15  1  0  0  0  0
  7  8  1  0  0  0  0
  7 25  1  0  0  0  0
  8  9  2  0  0  0  0
  8 10  1  0  0  0  0
 10 14  1  0  0  0  0
 10 11  2  0  0  0  0
 11 12  1  0  0  0  0
 11 26  1  0  0  0  0
 12 13  2  0  0  0  0
 12 27  1  0  0  0  0
 13 14  1  0  0  0  0
 13 28  1  0  0  0  0
 15 16  1  0  0  0  0
 16 17  1  0  0  0  0
 16 20  2  0  0  0  0
 17 18  1  0  0  0  0
 17 19  2  0  0  0  0
 18 29  1  0  0  0  0
 18 30  1  0  0  0  0
 18 31  1  0  0  0  0
 20 21  1  0  0  0  0
 21 32  1  0  0  0  0
 21 33  1  0  0  0  0
 21 34  1  0  0  0  0
M  END
$$$$
