ZINC000000049252      none
 OpenBabel11202420153D

 34 36  0  0  1  0  0  0  0  0999 V2000
   30.8365   39.2719   64.5740 C   0  0  0  0  0  0  0  0  0  0  0  0
   30.7003   37.8956   63.9198 C   0  0  2  0  0  0  0  0  0  0  0  0
   31.9694   37.5815   63.1242 C   0  0  0  0  0  0  0  0  0  0  0  0
   31.8436   36.1887   62.4989 C   0  0  0  0  0  0  0  0  0  0  0  0
   30.6067   36.1356   61.7076 N   0  0  0  0  0  0  0  0  0  0  0  0
   30.6405   35.6669   60.1196 S   0  0  0  0  0  0  0  0  0  0  0  0
   29.3282   35.8690   59.6136 O   0  0  0  0  0  0  0  0  0  0  0  0
   31.3012   34.4092   60.0865 O   0  0  0  0  0  0  0  0  0  0  0  0
   31.6839   36.7997   59.2636 C   0  0  0  0  0  0  0  0  0  0  0  0
   31.7875   38.0818   59.6899 C   0  0  0  0  0  0  0  0  0  0  0  0
   32.6035   39.0052   59.0362 C   0  0  0  0  0  0  0  0  0  0  0  0
   33.3297   38.6629   57.9445 C   0  0  0  0  0  0  0  0  0  0  0  0
   33.2657   37.3399   57.4397 C   0  0  0  0  0  0  0  0  0  0  0  0
   33.8753   36.7725   56.4113 N   0  0  0  0  0  0  0  0  0  0  0  0
   33.4465   35.2806   56.3146 S   0  0  0  0  0  0  0  0  0  0  0  0
   32.4794   35.1925   57.5296 N   0  0  0  0  0  0  0  0  0  0  0  0
   32.4158   36.3712   58.1276 C   0  0  0  0  0  0  0  0  0  0  0  0
   29.3402   36.5120   62.3502 C   0  0  0  0  0  0  0  0  0  0  0  0
   29.4933   37.8958   62.9788 C   0  0  0  0  0  0  0  0  0  0  0  0
   30.9783   40.0286   63.8024 H   0  0  0  0  0  0  0  0  0  0  0  0
   29.9326   39.4958   65.1407 H   0  0  0  0  0  0  0  0  0  0  0  0
   31.6953   39.2719   65.2451 H   0  0  0  0  0  0  0  0  0  0  0  0
   30.5589   37.1390   64.6915 H   0  0  0  0  0  0  0  0  0  0  0  0
   32.8316   37.6045   63.7907 H   0  0  0  0  0  0  0  0  0  0  0  0
   32.0980   38.3237   62.3364 H   0  0  0  0  0  0  0  0  0  0  0  0
   31.8060   35.4364   63.2867 H   0  0  0  0  0  0  0  0  0  0  0  0
   32.6997   35.9976   61.8519 H   0  0  0  0  0  0  0  0  0  0  0  0
   31.2253   38.3961   60.5568 H   0  0  0  0  0  0  0  0  0  0  0  0
   32.6574   40.0175   59.4089 H   0  0  0  0  0  0  0  0  0  0  0  0
   33.9528   39.3982   57.4572 H   0  0  0  0  0  0  0  0  0  0  0  0
   28.5455   36.5367   61.6048 H   0  0  0  0  0  0  0  0  0  0  0  0
   29.0943   35.7867   63.1257 H   0  0  0  0  0  0  0  0  0  0  0  0
   28.5932   38.1426   63.5419 H   0  0  0  0  0  0  0  0  0  0  0  0
   29.6452   38.6352   62.1925 H   0  0  0  0  0  0  0  0  0  0  0  0
  1  2  1  0  0  0  0
  1 20  1  0  0  0  0
  1 21  1  0  0  0  0
  1 22  1  0  0  0  0
  2 19  1  0  0  0  0
  2  3  1  0  0  0  0
  2 23  1  1  0  0  0
  3  4  1  0  0  0  0
  3 24  1  0  0  0  0
  3 25  1  0  0  0  0
  4  5  1  0  0  0  0
  4 26  1  0  0  0  0
  4 27  1  0  0  0  0
  5  6  1  0  0  0  0
  5 18  1  0  0  0  0
  6  7  2  0  0  0  0
  6  8  2  0  0  0  0
  6  9  1  0  0  0  0
  9 17  1  0  0  0  0
  9 10  2  0  0  0  0
 10 11  1  0  0  0  0
 10 28  1  0  0  0  0
 11 12  2  0  0  0  0
 11 29  1  0  0  0  0
 12 13  1  0  0  0  0
 12 30  1  0  0  0  0
 13 17  1  0  0  0  0
 13 14  2  0  0  0  0
 14 15  1  0  0  0  0
 15 16  1  0  0  0  0
 16 17  2  0  0  0  0
 18 19  1  0  0  0  0
 18 31  1  0  0  0  0
 18 32  1  0  0  0  0
 19 33  1  0  0  0  0
 19 34  1  0  0  0  0
M  END
$$$$
