ZINC000000000051      none
 OpenBabel11202420153D

 37 38  0  0  1  0  0  0  0  0999 V2000
   32.6681   38.7629   58.8660 C   0  0  0  0  0  0  0  0  0  0  0  0
   32.6920   37.3505   58.3412 C   0  0  0  0  0  0  0  0  0  0  0  0
   33.0661   37.1046   57.0344 C   0  0  0  0  0  0  0  0  0  0  0  0
   33.0884   35.8091   56.5522 C   0  0  0  0  0  0  0  0  0  0  0  0
   32.7363   34.7553   57.3759 C   0  0  0  0  0  0  0  0  0  0  0  0
   32.3614   34.9944   58.6832 C   0  0  0  0  0  0  0  0  0  0  0  0
   32.3325   36.2953   59.1691 C   0  0  0  0  0  0  0  0  0  0  0  0
   31.9475   36.5414   60.4916 N   0  0  0  0  0  0  0  0  0  0  0  0
   30.7190   36.1820   60.9136 C   0  0  0  0  0  0  0  0  0  0  0  0
   29.9472   35.6456   60.1472 O   0  0  0  0  0  0  0  0  0  0  0  0
   30.3044   36.4469   62.3381 C   0  0  2  0  0  0  0  0  0  0  0  0
   30.0608   35.5036   62.8269 H   0  0  0  0  0  0  0  0  0  0  0  0
   29.0766   37.3597   62.3508 C   0  0  0  0  0  0  0  0  0  0  0  0
   31.4075   37.0996   63.0559 N   0  0  0  0  0  0  0  0  0  0  0  0
   30.9228   37.7461   64.3022 C   0  0  0  0  0  0  0  0  0  0  0  0
   32.2119   37.8954   65.1486 C   0  0  0  0  0  0  0  0  0  0  0  0
   32.9872   36.5965   64.8296 C   0  0  0  0  0  0  0  0  0  0  0  0
   32.4211   36.1107   63.4826 C   0  0  0  0  0  0  0  0  0  0  0  0
   31.6834   39.1976   58.6946 H   0  0  0  0  0  0  0  0  0  0  0  0
   32.8816   38.7570   59.9349 H   0  0  0  0  0  0  0  0  0  0  0  0
   33.4222   39.3557   58.3482 H   0  0  0  0  0  0  0  0  0  0  0  0
   33.3420   37.9254   56.3888 H   0  0  0  0  0  0  0  0  0  0  0  0
   33.3816   35.6194   55.5302 H   0  0  0  0  0  0  0  0  0  0  0  0
   32.7550   33.7444   56.9963 H   0  0  0  0  0  0  0  0  0  0  0  0
   32.0866   34.1711   59.3259 H   0  0  0  0  0  0  0  0  0  0  0  0
   32.5648   36.9704   61.1047 H   0  0  0  0  0  0  0  0  0  0  0  0
   28.2877   36.9160   61.7436 H   0  0  0  0  0  0  0  0  0  0  0  0
   28.7233   37.4793   63.3749 H   0  0  0  0  0  0  0  0  0  0  0  0
   29.3444   38.3344   61.9427 H   0  0  0  0  0  0  0  0  0  0  0  0
   30.4894   38.7226   64.0857 H   0  0  0  0  0  0  0  0  0  0  0  0
   30.2004   37.1077   64.8109 H   0  0  0  0  0  0  0  0  0  0  0  0
   31.9720   37.9506   66.2104 H   0  0  0  0  0  0  0  0  0  0  0  0
   32.7803   38.7708   64.8345 H   0  0  0  0  0  0  0  0  0  0  0  0
   32.8114   35.8508   65.6050 H   0  0  0  0  0  0  0  0  0  0  0  0
   34.0533   36.8048   64.7389 H   0  0  0  0  0  0  0  0  0  0  0  0
   31.9564   35.1324   63.6061 H   0  0  0  0  0  0  0  0  0  0  0  0
   33.2195   36.0546   62.7426 H   0  0  0  0  0  0  0  0  0  0  0  0
  1  2  1  0  0  0  0
  1 19  1  0  0  0  0
  1 20  1  0  0  0  0
  1 21  1  0  0  0  0
  2  7  2  0  0  0  0
  2  3  1  0  0  0  0
  3  4  2  0  0  0  0
  3 22  1  0  0  0  0
  4  5  1  0  0  0  0
  4 23  1  0  0  0  0
  5  6  2  0  0  0  0
  5 24  1  0  0  0  0
  6  7  1  0  0  0  0
  6 25  1  0  0  0  0
  7  8  1  0  0  0  0
  8  9  1  0  0  0  0
  8 26  1  0  0  0  0
  9 10  2  0  0  0  0
  9 11  1  0  0  0  0
 11 12  1  1  0  0  0
 11 13  1  0  0  0  0
 11 14  1  0  0  0  0
 13 27  1  0  0  0  0
 13 28  1  0  0  0  0
 13 29  1  0  0  0  0
 14 18  1  0  0  0  0
 14 15  1  0  0  0  0
 15 16  1  0  0  0  0
 15 30  1  0  0  0  0
 15 31  1  0  0  0  0
 16 17  1  0  0  0  0
 16 32  1  0  0  0  0
 16 33  1  0  0  0  0
 17 18  1  0  0  0  0
 17 34  1  0  0  0  0
 17 35  1  0  0  0  0
 18 36  1  0  0  0  0
 18 37  1  0  0  0  0
M  END
$$$$
