ZINC000000036103      none
 OpenBabel11202420153D

 45 47  0  0  1  0  0  0  0  0999 V2000
   33.9787   36.5740   54.3488 C   0  0  0  0  0  0  0  0  0  0  0  0
   33.5650   36.8532   55.7708 C   0  0  0  0  0  0  0  0  0  0  0  0
   33.5759   38.1501   56.2504 C   0  0  0  0  0  0  0  0  0  0  0  0
   33.1969   38.4094   57.5530 C   0  0  0  0  0  0  0  0  0  0  0  0
   33.2080   39.8232   58.0746 C   0  0  0  0  0  0  0  0  0  0  0  0
   32.8051   37.3660   58.3814 C   0  0  0  0  0  0  0  0  0  0  0  0
   32.4261   37.6246   59.7033 N   0  0  0  0  0  0  0  0  0  0  0  0
   31.1869   37.3027   60.1243 C   0  0  0  0  0  0  0  0  0  0  0  0
   30.4003   36.7889   59.3574 O   0  0  0  0  0  0  0  0  0  0  0  0
   30.7788   37.5811   61.5480 C   0  0  1  0  0  0  0  0  0  0  0  0
   30.3441   38.5786   61.6129 H   0  0  0  0  0  0  0  0  0  0  0  0
   29.7458   36.5445   61.9946 C   0  0  0  0  0  0  0  0  0  0  0  0
   32.2327   37.4855   62.6220 S   0  0  0  0  0  0  0  0  0  0  0  0
   31.6476   38.3981   64.0110 C   0  0  0  0  0  0  0  0  0  0  0  0
   30.4600   38.9437   64.1077 N   0  0  0  0  0  0  0  0  0  0  0  0
   30.3402   39.5664   65.3093 C   0  0  0  0  0  0  0  0  0  0  0  0
   29.3098   40.2873   65.9183 C   0  0  0  0  0  0  0  0  0  0  0  0
   29.4960   40.8168   67.1755 C   0  0  0  0  0  0  0  0  0  0  0  0
   30.6991   40.6403   67.8426 C   0  0  0  0  0  0  0  0  0  0  0  0
   31.7264   39.9309   67.2551 C   0  0  0  0  0  0  0  0  0  0  0  0
   31.5565   39.3903   65.9896 C   0  0  0  0  0  0  0  0  0  0  0  0
   32.3663   38.6476   65.1459 N   0  0  0  0  0  0  0  0  0  0  0  0
   33.2745   38.3590   65.3269 H   0  0  0  0  0  0  0  0  0  0  0  0
   32.7958   36.0645   57.8968 C   0  0  0  0  0  0  0  0  0  0  0  0
   32.3718   34.9292   58.7925 C   0  0  0  0  0  0  0  0  0  0  0  0
   33.1749   35.8120   56.5930 C   0  0  0  0  0  0  0  0  0  0  0  0
   35.0516   36.3849   54.3130 H   0  0  0  0  0  0  0  0  0  0  0  0
   33.4432   35.6992   53.9798 H   0  0  0  0  0  0  0  0  0  0  0  0
   33.7405   37.4357   53.7253 H   0  0  0  0  0  0  0  0  0  0  0  0
   33.8806   38.9611   55.6057 H   0  0  0  0  0  0  0  0  0  0  0  0
   34.1838   40.0429   58.5079 H   0  0  0  0  0  0  0  0  0  0  0  0
   33.0104   40.5144   57.2552 H   0  0  0  0  0  0  0  0  0  0  0  0
   32.4380   39.9350   58.8379 H   0  0  0  0  0  0  0  0  0  0  0  0
   33.0553   38.0356   60.3166 H   0  0  0  0  0  0  0  0  0  0  0  0
   28.8703   36.6022   61.3477 H   0  0  0  0  0  0  0  0  0  0  0  0
   30.1805   35.5471   61.9295 H   0  0  0  0  0  0  0  0  0  0  0  0
   29.4507   36.7460   63.0243 H   0  0  0  0  0  0  0  0  0  0  0  0
   28.3704   40.4286   65.4045 H   0  0  0  0  0  0  0  0  0  0  0  0
   28.6992   41.3740   67.6458 H   0  0  0  0  0  0  0  0  0  0  0  0
   30.8328   41.0608   68.8283 H   0  0  0  0  0  0  0  0  0  0  0  0
   32.6606   39.7963   67.7801 H   0  0  0  0  0  0  0  0  0  0  0  0
   31.3229   34.6951   58.6106 H   0  0  0  0  0  0  0  0  0  0  0  0
   32.9821   34.0515   58.5800 H   0  0  0  0  0  0  0  0  0  0  0  0
   32.5038   35.2198   59.8347 H   0  0  0  0  0  0  0  0  0  0  0  0
   33.1673   34.8002   56.2154 H   0  0  0  0  0  0  0  0  0  0  0  0
  1  2  1  0  0  0  0
  1 27  1  0  0  0  0
  1 28  1  0  0  0  0
  1 29  1  0  0  0  0
  2 26  2  0  0  0  0
  2  3  1  0  0  0  0
  3  4  2  0  0  0  0
  3 30  1  0  0  0  0
  4  5  1  0  0  0  0
  4  6  1  0  0  0  0
  5 31  1  0  0  0  0
  5 32  1  0  0  0  0
  5 33  1  0  0  0  0
  6  7  1  0  0  0  0
  6 24  2  0  0  0  0
  7  8  1  0  0  0  0
  7 34  1  0  0  0  0
  8  9  2  0  0  0  0
  8 10  1  0  0  0  0
 10 11  1  1  0  0  0
 10 12  1  0  0  0  0
 10 13  1  0  0  0  0
 12 35  1  0  0  0  0
 12 36  1  0  0  0  0
 12 37  1  0  0  0  0
 13 14  1  0  0  0  0
 14 22  1  0  0  0  0
 14 15  2  0  0  0  0
 15 16  1  0  0  0  0
 16 21  2  0  0  0  0
 16 17  1  0  0  0  0
 17 18  2  0  0  0  0
 17 38  1  0  0  0  0
 18 19  1  0  0  0  0
 18 39  1  0  0  0  0
 19 20  2  0  0  0  0
 19 40  1  0  0  0  0
 20 21  1  0  0  0  0
 20 41  1  0  0  0  0
 21 22  1  0  0  0  0
 22 23  1  0  0  0  0
 24 25  1  0  0  0  0
 24 26  1  0  0  0  0
 25 42  1  0  0  0  0
 25 43  1  0  0  0  0
 25 44  1  0  0  0  0
 26 45  1  0  0  0  0
M  END
$$$$
