ZINC000000034248      none
 OpenBabel11202420153D

 30 32  0  0  1  0  0  0  0  0999 V2000
   31.9857   35.5383   64.5215 O   0  0  0  0  0  0  0  0  0  0  0  0
   31.7415   36.7113   64.3706 C   0  0  0  0  0  0  0  0  0  0  0  0
   31.4967   37.6120   65.5610 C   0  0  0  0  0  0  0  0  0  0  0  0
   30.1829   38.3684   65.3375 C   0  0  0  0  0  0  0  0  0  0  0  0
   30.2393   39.0994   63.9951 C   0  0  0  0  0  0  0  0  0  0  0  0
   30.3516   38.0844   62.8564 C   0  0  0  0  0  0  0  0  0  0  0  0
   31.6717   37.3173   62.9864 C   0  0  2  0  0  0  0  0  0  0  0  0
   32.5082   38.0007   62.8404 H   0  0  0  0  0  0  0  0  0  0  0  0
   31.7362   36.0031   61.7434 S   0  0  0  0  0  0  0  0  0  0  0  0
   32.2386   36.9372   60.3364 C   0  0  0  0  0  0  0  0  0  0  0  0
   32.4375   36.4439   59.1400 N   0  0  0  0  0  0  0  0  0  0  0  0
   32.8146   37.4535   58.3087 C   0  0  0  0  0  0  0  0  0  0  0  0
   33.1488   37.5131   56.9550 C   0  0  0  0  0  0  0  0  0  0  0  0
   33.4969   38.7202   56.3896 C   0  0  0  0  0  0  0  0  0  0  0  0
   33.5168   39.8744   57.1573 C   0  0  0  0  0  0  0  0  0  0  0  0
   33.1889   39.8294   58.4975 C   0  0  0  0  0  0  0  0  0  0  0  0
   32.8366   38.6239   59.0820 C   0  0  0  0  0  0  0  0  0  0  0  0
   32.4684   38.2626   60.3328 O   0  0  0  0  0  0  0  0  0  0  0  0
   32.3169   38.3234   65.6567 H   0  0  0  0  0  0  0  0  0  0  0  0
   31.4229   37.0100   66.4666 H   0  0  0  0  0  0  0  0  0  0  0  0
   30.0391   39.0922   66.1398 H   0  0  0  0  0  0  0  0  0  0  0  0
   29.3528   37.6620   65.3322 H   0  0  0  0  0  0  0  0  0  0  0  0
   31.1062   39.7598   63.9784 H   0  0  0  0  0  0  0  0  0  0  0  0
   29.3324   39.6900   63.8657 H   0  0  0  0  0  0  0  0  0  0  0  0
   30.3275   38.6067   61.9000 H   0  0  0  0  0  0  0  0  0  0  0  0
   29.5176   37.3844   62.9093 H   0  0  0  0  0  0  0  0  0  0  0  0
   33.1345   36.6164   56.3531 H   0  0  0  0  0  0  0  0  0  0  0  0
   33.7557   38.7676   55.3422 H   0  0  0  0  0  0  0  0  0  0  0  0
   33.7912   40.8155   56.7038 H   0  0  0  0  0  0  0  0  0  0  0  0
   33.2066   40.7326   59.0892 H   0  0  0  0  0  0  0  0  0  0  0  0
  1  2  2  0  0  0  0
  2  7  1  0  0  0  0
  2  3  1  0  0  0  0
  3  4  1  0  0  0  0
  3 19  1  0  0  0  0
  3 20  1  0  0  0  0
  4  5  1  0  0  0  0
  4 21  1  0  0  0  0
  4 22  1  0  0  0  0
  5  6  1  0  0  0  0
  5 23  1  0  0  0  0
  5 24  1  0  0  0  0
  6  7  1  0  0  0  0
  6 25  1  0  0  0  0
  6 26  1  0  0  0  0
  7  8  1  6  0  0  0
  7  9  1  0  0  0  0
  9 10  1  0  0  0  0
 10 18  1  0  0  0  0
 10 11  2  0  0  0  0
 11 12  1  0  0  0  0
 12 17  2  0  0  0  0
 12 13  1  0  0  0  0
 13 14  2  0  0  0  0
 13 27  1  0  0  0  0
 14 15  1  0  0  0  0
 14 28  1  0  0  0  0
 15 16  2  0  0  0  0
 15 29  1  0  0  0  0
 16 17  1  0  0  0  0
 16 30  1  0  0  0  0
 17 18  1  0  0  0  0
M  END
$$$$
