ZINC000000051485      none
 OpenBabel11202420153D

 27 29  0  0  0  0  0  0  0  0999 V2000
   32.8023   33.8923   60.4452 C   0  0  0  0  0  0  0  0  0  0  0  0
   31.9409   34.6253   60.1309 C   0  0  0  0  0  0  0  0  0  0  0  0
   30.8609   35.5446   59.7369 C   0  0  0  0  0  0  0  0  0  0  0  0
   30.9306   36.7587   60.5537 N   0  0  0  0  0  0  0  0  0  0  0  0
   31.6307   37.8973   60.2583 C   0  0  0  0  0  0  0  0  0  0  0  0
   32.4513   38.1007   59.0440 C   0  0  0  0  0  0  0  0  0  0  0  0
   32.6620   37.2720   58.0438 N   0  0  0  0  0  0  0  0  0  0  0  0
   33.3900   37.7979   57.2349 O   0  0  0  0  0  0  0  0  0  0  0  0
   33.7557   38.9192   57.4977 N   0  0  0  0  0  0  0  0  0  0  0  0
   33.2375   39.2914   58.6447 C   0  0  0  0  0  0  0  0  0  0  0  0
   33.3901   40.4971   59.3166 N   0  0  0  0  0  0  0  0  0  0  0  0
   31.4651   38.7798   61.2123 N   0  0  0  0  0  0  0  0  0  0  0  0
   30.6562   38.2680   62.1704 C   0  0  0  0  0  0  0  0  0  0  0  0
   30.1622   38.7688   63.3799 C   0  0  0  0  0  0  0  0  0  0  0  0
   29.3439   37.9956   64.1528 C   0  0  0  0  0  0  0  0  0  0  0  0
   28.9947   36.7133   63.7520 C   0  0  0  0  0  0  0  0  0  0  0  0
   29.4690   36.1983   62.5645 C   0  0  0  0  0  0  0  0  0  0  0  0
   30.2980   36.9705   61.7618 C   0  0  0  0  0  0  0  0  0  0  0  0
   33.5727   33.2365   60.7264 H   0  0  0  0  0  0  0  0  0  0  0  0
   30.9731   35.8074   58.6850 H   0  0  0  0  0  0  0  0  0  0  0  0
   29.8969   35.0591   59.8892 H   0  0  0  0  0  0  0  0  0  0  0  0
   32.9460   40.6378   60.1673 H   0  0  0  0  0  0  0  0  0  0  0  0
   33.9408   41.1986   58.9350 H   0  0  0  0  0  0  0  0  0  0  0  0
   30.4270   39.7652   63.7014 H   0  0  0  0  0  0  0  0  0  0  0  0
   28.9644   38.3860   65.0855 H   0  0  0  0  0  0  0  0  0  0  0  0
   28.3469   36.1145   64.3752 H   0  0  0  0  0  0  0  0  0  0  0  0
   29.1939   35.1999   62.2580 H   0  0  0  0  0  0  0  0  0  0  0  0
  1  2  3  0  0  0  0
  1 19  1  0  0  0  0
  2  3  1  0  0  0  0
  3  4  1  0  0  0  0
  3 20  1  0  0  0  0
  3 21  1  0  0  0  0
  4 18  1  0  0  0  0
  4  5  1  0  0  0  0
  5  6  1  0  0  0  0
  5 12  2  0  0  0  0
  6 10  1  0  0  0  0
  6  7  2  0  0  0  0
  7  8  1  0  0  0  0
  8  9  1  0  0  0  0
  9 10  2  0  0  0  0
 10 11  1  0  0  0  0
 11 22  1  0  0  0  0
 11 23  1  0  0  0  0
 12 13  1  0  0  0  0
 13 18  2  0  0  0  0
 13 14  1  0  0  0  0
 14 15  2  0  0  0  0
 14 24  1  0  0  0  0
 15 16  1  0  0  0  0
 15 25  1  0  0  0  0
 16 17  2  0  0  0  0
 16 26  1  0  0  0  0
 17 18  1  0  0  0  0
 17 27  1  0  0  0  0
M  END
$$$$
