ZINC000000047733      none
 OpenBabel11202420153D

 34 35  0  0  0  0  0  0  0  0999 V2000
   34.6710   37.6172   52.8899 C   0  0  0  0  0  0  0  0  0  0  0  0
   34.2444   37.5513   54.2764 O   0  0  0  0  0  0  0  0  0  0  0  0
   34.1969   38.7129   54.9577 C   0  0  0  0  0  0  0  0  0  0  0  0
   34.5035   39.7525   54.4083 O   0  0  0  0  0  0  0  0  0  0  0  0
   33.7728   38.7225   56.3698 C   0  0  0  0  0  0  0  0  0  0  0  0
   33.7172   39.9277   57.0765 C   0  0  0  0  0  0  0  0  0  0  0  0
   33.3254   39.9325   58.3959 C   0  0  0  0  0  0  0  0  0  0  0  0
   32.9745   38.7410   59.0235 C   0  0  0  0  0  0  0  0  0  0  0  0
   32.5725   38.7503   60.3575 N   0  0  0  0  0  0  0  0  0  0  0  0
   31.6978   37.8272   60.8042 C   0  0  0  0  0  0  0  0  0  0  0  0
   31.2595   36.9867   60.0430 O   0  0  0  0  0  0  0  0  0  0  0  0
   31.2716   37.8369   62.2186 C   0  0  0  0  0  0  0  0  0  0  0  0
   30.6319   38.9582   62.7509 C   0  0  0  0  0  0  0  0  0  0  0  0
   30.2316   38.9585   64.0704 C   0  0  0  0  0  0  0  0  0  0  0  0
   30.4723   37.8551   64.8710 C   0  0  0  0  0  0  0  0  0  0  0  0
   30.0453   37.8664   66.2882 N   0  0  0  0  0  0  0  0  0  0  0  0
   29.4834   38.8448   66.7473 O   0  0  0  0  0  0  0  0  0  0  0  0
   30.2557   36.8972   66.9952 O   0  0  0  0  0  0  0  0  0  0  0  0
   31.1104   36.7431   64.3533 C   0  0  0  0  0  0  0  0  0  0  0  0
   31.5119   36.7264   63.0317 C   0  0  0  0  0  0  0  0  0  0  0  0
   32.3133   35.3297   62.3830 Cl  0  0  0  0  0  0  0  0  0  0  0  0
   33.0237   37.5402   58.3217 C   0  0  0  0  0  0  0  0  0  0  0  0
   33.4195   37.5273   57.0036 C   0  0  0  0  0  0  0  0  0  0  0  0
   34.6646   36.6158   52.4598 H   0  0  0  0  0  0  0  0  0  0  0  0
   33.9893   38.2575   52.3301 H   0  0  0  0  0  0  0  0  0  0  0  0
   35.6793   38.0280   52.8392 H   0  0  0  0  0  0  0  0  0  0  0  0
   33.9848   40.8533   56.5886 H   0  0  0  0  0  0  0  0  0  0  0  0
   33.2861   40.8625   58.9435 H   0  0  0  0  0  0  0  0  0  0  0  0
   32.9221   39.4209   60.9648 H   0  0  0  0  0  0  0  0  0  0  0  0
   30.4474   39.8220   62.1293 H   0  0  0  0  0  0  0  0  0  0  0  0
   29.7328   39.8237   64.4816 H   0  0  0  0  0  0  0  0  0  0  0  0
   31.2948   35.8856   64.9836 H   0  0  0  0  0  0  0  0  0  0  0  0
   32.7507   36.6173   58.8119 H   0  0  0  0  0  0  0  0  0  0  0  0
   33.4568   36.5953   56.4594 H   0  0  0  0  0  0  0  0  0  0  0  0
  1  2  1  0  0  0  0
  1 24  1  0  0  0  0
  1 25  1  0  0  0  0
  1 26  1  0  0  0  0
  2  3  1  0  0  0  0
  3  4  2  0  0  0  0
  3  5  1  0  0  0  0
  5 23  2  0  0  0  0
  5  6  1  0  0  0  0
  6  7  2  0  0  0  0
  6 27  1  0  0  0  0
  7  8  1  0  0  0  0
  7 28  1  0  0  0  0
  8  9  1  0  0  0  0
  8 22  2  0  0  0  0
  9 10  1  0  0  0  0
  9 29  1  0  0  0  0
 10 11  2  0  0  0  0
 10 12  1  0  0  0  0
 12 20  2  0  0  0  0
 12 13  1  0  0  0  0
 13 14  2  0  0  0  0
 13 30  1  0  0  0  0
 14 15  1  0  0  0  0
 14 31  1  0  0  0  0
 15 16  1  0  0  0  0
 15 19  2  0  0  0  0
 16 17  2  0  0  0  0
 16 18  2  0  0  0  0
 19 20  1  0  0  0  0
 19 32  1  0  0  0  0
 20 21  1  0  0  0  0
 22 23  1  0  0  0  0
 22 33  1  0  0  0  0
 23 34  1  0  0  0  0
M  END
$$$$
