ZINC000000031793      none
 OpenBabel11202420163D

 42 43  0  0  0  0  0  0  0  0999 V2000
   33.9070   34.7740   55.9688 C   0  0  0  0  0  0  0  0  0  0  0  0
   33.4061   36.1465   56.0768 N   0  0  0  0  0  0  0  0  0  0  0  0
   33.2685   36.9727   54.8749 C   0  0  0  0  0  0  0  0  0  0  0  0
   33.0591   36.6681   57.3277 C   0  0  0  0  0  0  0  0  0  0  0  0
   32.5863   35.8248   58.3249 C   0  0  0  0  0  0  0  0  0  0  0  0
   32.2434   36.3399   59.5591 C   0  0  0  0  0  0  0  0  0  0  0  0
   32.3713   37.7009   59.8034 C   0  0  0  0  0  0  0  0  0  0  0  0
   32.0235   38.2233   61.0558 N   0  0  0  0  0  0  0  0  0  0  0  0
   32.1501   37.4635   62.1617 C   0  0  0  0  0  0  0  0  0  0  0  0
   32.5664   36.3243   62.0724 O   0  0  0  0  0  0  0  0  0  0  0  0
   31.7894   38.0155   63.4811 C   0  0  0  0  0  0  0  0  0  0  0  0
   30.8343   39.0319   63.5778 C   0  0  0  0  0  0  0  0  0  0  0  0
   30.4968   39.5417   64.8106 C   0  0  0  0  0  0  0  0  0  0  0  0
   31.1125   39.0534   65.9598 C   0  0  0  0  0  0  0  0  0  0  0  0
   30.7729   39.5743   67.2036 N   0  0  0  0  0  0  0  0  0  0  0  0
   30.9708   40.9992   67.4799 C   0  0  0  0  0  0  0  0  0  0  0  0
   30.2171   38.6979   68.2378 C   0  0  0  0  0  0  0  0  0  0  0  0
   32.0678   38.0450   65.8664 C   0  0  0  0  0  0  0  0  0  0  0  0
   32.4062   37.5275   64.6370 C   0  0  0  0  0  0  0  0  0  0  0  0
   32.8385   38.5449   58.8046 C   0  0  0  0  0  0  0  0  0  0  0  0
   33.1868   38.0293   57.5721 C   0  0  0  0  0  0  0  0  0  0  0  0
   33.0699   34.0925   55.8177 H   0  0  0  0  0  0  0  0  0  0  0  0
   34.5912   34.7024   55.1233 H   0  0  0  0  0  0  0  0  0  0  0  0
   34.4327   34.5060   56.8854 H   0  0  0  0  0  0  0  0  0  0  0  0
   33.8920   37.8614   54.9716 H   0  0  0  0  0  0  0  0  0  0  0  0
   33.5845   36.4005   54.0025 H   0  0  0  0  0  0  0  0  0  0  0  0
   32.2268   37.2707   54.7560 H   0  0  0  0  0  0  0  0  0  0  0  0
   32.4873   34.7663   58.1350 H   0  0  0  0  0  0  0  0  0  0  0  0
   31.8755   35.6842   60.3345 H   0  0  0  0  0  0  0  0  0  0  0  0
   31.6913   39.1319   61.1270 H   0  0  0  0  0  0  0  0  0  0  0  0
   30.3593   39.4139   62.6864 H   0  0  0  0  0  0  0  0  0  0  0  0
   29.7567   40.3245   64.8864 H   0  0  0  0  0  0  0  0  0  0  0  0
   31.3014   41.5030   66.5716 H   0  0  0  0  0  0  0  0  0  0  0  0
   30.0317   41.4378   67.8174 H   0  0  0  0  0  0  0  0  0  0  0  0
   31.7267   41.1173   68.2564 H   0  0  0  0  0  0  0  0  0  0  0  0
   31.0280   38.2825   68.8362 H   0  0  0  0  0  0  0  0  0  0  0  0
   29.5490   39.2719   68.8798 H   0  0  0  0  0  0  0  0  0  0  0  0
   29.6611   37.8873   67.7668 H   0  0  0  0  0  0  0  0  0  0  0  0
   32.5437   37.6683   66.7596 H   0  0  0  0  0  0  0  0  0  0  0  0
   33.1476   36.7455   64.5651 H   0  0  0  0  0  0  0  0  0  0  0  0
   32.9338   39.6041   58.9933 H   0  0  0  0  0  0  0  0  0  0  0  0
   33.5544   38.6851   56.7967 H   0  0  0  0  0  0  0  0  0  0  0  0
  1  2  1  0  0  0  0
  1 22  1  0  0  0  0
  1 23  1  0  0  0  0
  1 24  1  0  0  0  0
  2  3  1  0  0  0  0
  2  4  1  0  0  0  0
  3 25  1  0  0  0  0
  3 26  1  0  0  0  0
  3 27  1  0  0  0  0
  4 21  2  0  0  0  0
  4  5  1  0  0  0  0
  5  6  2  0  0  0  0
  5 28  1  0  0  0  0
  6  7  1  0  0  0  0
  6 29  1  0  0  0  0
  7  8  1  0  0  0  0
  7 20  2  0  0  0  0
  8  9  1  0  0  0  0
  8 30  1  0  0  0  0
  9 10  2  0  0  0  0
  9 11  1  0  0  0  0
 11 19  2  0  0  0  0
 11 12  1  0  0  0  0
 12 13  2  0  0  0  0
 12 31  1  0  0  0  0
 13 14  1  0  0  0  0
 13 32  1  0  0  0  0
 14 15  1  0  0  0  0
 14 18  2  0  0  0  0
 15 16  1  0  0  0  0
 15 17  1  0  0  0  0
 16 33  1  0  0  0  0
 16 34  1  0  0  0  0
 16 35  1  0  0  0  0
 17 36  1  0  0  0  0
 17 37  1  0  0  0  0
 17 38  1  0  0  0  0
 18 19  1  0  0  0  0
 18 39  1  0  0  0  0
 19 40  1  0  0  0  0
 20 21  1  0  0  0  0
 20 41  1  0  0  0  0
 21 42  1  0  0  0  0
M  END
$$$$
