ZINC000000054368      none
 OpenBabel11202420153D

 23 25  0  0  0  0  0  0  0  0999 V2000
   31.5121   34.2793   59.7710 Cl  0  0  0  0  0  0  0  0  0  0  0  0
   32.0037   35.9030   59.4030 C   0  0  0  0  0  0  0  0  0  0  0  0
   31.8214   36.9026   60.3460 C   0  0  0  0  0  0  0  0  0  0  0  0
   32.2149   38.1980   60.0489 C   0  0  0  0  0  0  0  0  0  0  0  0
   32.7864   38.4486   58.8106 C   0  0  0  0  0  0  0  0  0  0  0  0
   33.3040   40.0510   58.3881 Cl  0  0  0  0  0  0  0  0  0  0  0  0
   32.9356   37.3957   57.9075 C   0  0  0  0  0  0  0  0  0  0  0  0
   33.5390   37.6469   56.5811 C   0  0  0  0  0  0  0  0  0  0  0  0
   33.7276   36.7383   55.6587 N   0  0  0  0  0  0  0  0  0  0  0  0
   34.3012   37.3254   54.5781 C   0  0  0  0  0  0  0  0  0  0  0  0
   34.7175   36.8537   53.3304 C   0  0  0  0  0  0  0  0  0  0  0  0
   35.2755   37.7160   52.4291 C   0  0  0  0  0  0  0  0  0  0  0  0
   35.4333   39.0586   52.7412 C   0  0  0  0  0  0  0  0  0  0  0  0
   35.0286   39.5446   53.9672 C   0  0  0  0  0  0  0  0  0  0  0  0
   34.4601   38.6848   54.8948 C   0  0  0  0  0  0  0  0  0  0  0  0
   33.9753   38.8442   56.1457 O   0  0  0  0  0  0  0  0  0  0  0  0
   32.5449   36.1681   58.2320 N   0  0  0  0  0  0  0  0  0  0  0  0
   31.3765   36.6743   61.3032 H   0  0  0  0  0  0  0  0  0  0  0  0
   32.0832   38.9935   60.7673 H   0  0  0  0  0  0  0  0  0  0  0  0
   34.5983   35.8101   53.0788 H   0  0  0  0  0  0  0  0  0  0  0  0
   35.5925   37.3502   51.4637 H   0  0  0  0  0  0  0  0  0  0  0  0
   35.8761   39.7283   52.0188 H   0  0  0  0  0  0  0  0  0  0  0  0
   35.1543   40.5908   54.2038 H   0  0  0  0  0  0  0  0  0  0  0  0
  1  2  1  0  0  0  0
  2 17  2  0  0  0  0
  2  3  1  0  0  0  0
  3  4  2  0  0  0  0
  3 18  1  0  0  0  0
  4  5  1  0  0  0  0
  4 19  1  0  0  0  0
  5  6  1  0  0  0  0
  5  7  2  0  0  0  0
  7  8  1  0  0  0  0
  7 17  1  0  0  0  0
  8 16  1  0  0  0  0
  8  9  2  0  0  0  0
  9 10  1  0  0  0  0
 10 15  2  0  0  0  0
 10 11  1  0  0  0  0
 11 12  2  0  0  0  0
 11 20  1  0  0  0  0
 12 13  1  0  0  0  0
 12 21  1  0  0  0  0
 13 14  2  0  0  0  0
 13 22  1  0  0  0  0
 14 15  1  0  0  0  0
 14 23  1  0  0  0  0
 15 16  1  0  0  0  0
M  END
$$$$
