ZINC000000032772      none
 OpenBabel11202420153D

 27 29  0  0  0  0  0  0  0  0999 V2000
   32.1826   34.9240   59.1010 O   0  0  0  0  0  0  0  0  0  0  0  0
   32.2583   36.0854   59.4669 C   0  0  0  0  0  0  0  0  0  0  0  0
   31.8831   36.4712   60.7796 C   0  0  0  0  0  0  0  0  0  0  0  0
   31.4269   35.5429   61.6635 O   0  0  0  0  0  0  0  0  0  0  0  0
   31.9787   37.7806   61.1460 C   0  0  0  0  0  0  0  0  0  0  0  0
   31.5795   38.1665   62.5132 C   0  0  0  0  0  0  0  0  0  0  0  0
   32.2258   37.6139   63.6271 C   0  0  0  0  0  0  0  0  0  0  0  0
   31.8130   38.0089   64.8869 C   0  0  0  0  0  0  0  0  0  0  0  0
   30.7854   38.9279   65.0060 C   0  0  0  0  0  0  0  0  0  0  0  0
   30.1946   39.4320   63.9395 N   0  0  0  0  0  0  0  0  0  0  0  0
   30.5508   39.0884   62.7193 C   0  0  0  0  0  0  0  0  0  0  0  0
   32.4277   38.7321   60.3108 O   0  0  0  0  0  0  0  0  0  0  0  0
   32.8122   38.4607   59.0466 C   0  0  0  0  0  0  0  0  0  0  0  0
   33.2725   39.4712   58.2103 C   0  0  0  0  0  0  0  0  0  0  0  0
   33.6614   39.1745   56.9218 C   0  0  0  0  0  0  0  0  0  0  0  0
   33.5995   37.8717   56.4451 C   0  0  0  0  0  0  0  0  0  0  0  0
   34.0947   37.5219   54.8185 Cl  0  0  0  0  0  0  0  0  0  0  0  0
   33.1461   36.8552   57.2584 C   0  0  0  0  0  0  0  0  0  0  0  0
   32.7495   37.1435   58.5640 C   0  0  0  0  0  0  0  0  0  0  0  0
   30.4690   35.4134   61.6384 H   0  0  0  0  0  0  0  0  0  0  0  0
   33.0224   36.8950   63.5052 H   0  0  0  0  0  0  0  0  0  0  0  0
   32.2878   37.6040   65.7683 H   0  0  0  0  0  0  0  0  0  0  0  0
   30.4618   39.2380   65.9887 H   0  0  0  0  0  0  0  0  0  0  0  0
   30.0429   39.5227   61.8709 H   0  0  0  0  0  0  0  0  0  0  0  0
   33.3250   40.4882   58.5700 H   0  0  0  0  0  0  0  0  0  0  0  0
   34.0182   39.9633   56.2762 H   0  0  0  0  0  0  0  0  0  0  0  0
   33.0983   35.8421   56.8869 H   0  0  0  0  0  0  0  0  0  0  0  0
  1  2  2  0  0  0  0
  2 19  1  0  0  0  0
  2  3  1  0  0  0  0
  3  4  1  0  0  0  0
  3  5  2  0  0  0  0
  4 20  1  0  0  0  0
  5  6  1  0  0  0  0
  5 12  1  0  0  0  0
  6 11  2  0  0  0  0
  6  7  1  0  0  0  0
  7  8  2  0  0  0  0
  7 21  1  0  0  0  0
  8  9  1  0  0  0  0
  8 22  1  0  0  0  0
  9 10  2  0  0  0  0
  9 23  1  0  0  0  0
 10 11  1  0  0  0  0
 11 24  1  0  0  0  0
 12 13  1  0  0  0  0
 13 19  2  0  0  0  0
 13 14  1  0  0  0  0
 14 15  2  0  0  0  0
 14 25  1  0  0  0  0
 15 16  1  0  0  0  0
 15 26  1  0  0  0  0
 16 17  1  0  0  0  0
 16 18  2  0  0  0  0
 18 19  1  0  0  0  0
 18 27  1  0  0  0  0
M  END
$$$$
