ZINC000000033745      none
 OpenBabel11202420153D

 30 31  0  0  0  0  0  0  0  0999 V2000
   30.5392   38.6295   68.2344 C   0  0  0  0  0  0  0  0  0  0  0  0
   31.4804   37.8331   67.3677 C   0  0  0  0  0  0  0  0  0  0  0  0
   31.5281   37.8532   66.0164 C   0  0  0  0  0  0  0  0  0  0  0  0
   32.5409   36.9708   65.6078 C   0  0  0  0  0  0  0  0  0  0  0  0
   32.9127   36.7006   64.2836 N   0  0  0  0  0  0  0  0  0  0  0  0
   32.2801   37.3184   63.2665 C   0  0  0  0  0  0  0  0  0  0  0  0
   31.3870   38.1100   63.4975 O   0  0  0  0  0  0  0  0  0  0  0  0
   32.6376   37.0587   61.9932 N   0  0  0  0  0  0  0  0  0  0  0  0
   32.0049   37.6764   60.9762 C   0  0  0  0  0  0  0  0  0  0  0  0
   31.1120   38.4679   61.2071 O   0  0  0  0  0  0  0  0  0  0  0  0
   32.3965   37.3918   59.5815 C   0  0  0  0  0  0  0  0  0  0  0  0
   32.8559   38.4222   58.7575 C   0  0  0  0  0  0  0  0  0  0  0  0
   33.2146   38.1513   57.4547 C   0  0  0  0  0  0  0  0  0  0  0  0
   33.1205   36.8600   56.9605 C   0  0  0  0  0  0  0  0  0  0  0  0
   33.5750   36.5281   55.3183 Cl  0  0  0  0  0  0  0  0  0  0  0  0
   32.6662   35.8336   57.7706 C   0  0  0  0  0  0  0  0  0  0  0  0
   32.3036   36.0913   59.0777 C   0  0  0  0  0  0  0  0  0  0  0  0
   31.7334   34.8035   60.0928 Cl  0  0  0  0  0  0  0  0  0  0  0  0
   33.0747   36.4392   66.6821 N   0  0  0  0  0  0  0  0  0  0  0  0
   32.4249   36.9726   67.8025 N   0  0  0  0  0  0  0  0  0  0  0  0
   32.6177   36.7584   68.7286 H   0  0  0  0  0  0  0  0  0  0  0  0
   29.6300   38.0538   68.4080 H   0  0  0  0  0  0  0  0  0  0  0  0
   31.0195   38.8464   69.1885 H   0  0  0  0  0  0  0  0  0  0  0  0
   30.2873   39.5642   67.7335 H   0  0  0  0  0  0  0  0  0  0  0  0
   30.8990   38.4437   65.3667 H   0  0  0  0  0  0  0  0  0  0  0  0
   33.6255   36.0689   64.0991 H   0  0  0  0  0  0  0  0  0  0  0  0
   33.3504   36.4270   61.8088 H   0  0  0  0  0  0  0  0  0  0  0  0
   32.9296   39.4293   59.1408 H   0  0  0  0  0  0  0  0  0  0  0  0
   33.5695   38.9475   56.8172 H   0  0  0  0  0  0  0  0  0  0  0  0
   32.5955   34.8294   57.3795 H   0  0  0  0  0  0  0  0  0  0  0  0
  1  2  1  0  0  0  0
  1 22  1  0  0  0  0
  1 23  1  0  0  0  0
  1 24  1  0  0  0  0
  2 20  1  0  0  0  0
  2  3  2  0  0  0  0
  3  4  1  0  0  0  0
  3 25  1  0  0  0  0
  4  5  1  0  0  0  0
  4 19  2  0  0  0  0
  5  6  1  0  0  0  0
  5 26  1  0  0  0  0
  6  7  2  0  0  0  0
  6  8  1  0  0  0  0
  8  9  1  0  0  0  0
  8 27  1  0  0  0  0
  9 10  2  0  0  0  0
  9 11  1  0  0  0  0
 11 17  2  0  0  0  0
 11 12  1  0  0  0  0
 12 13  2  0  0  0  0
 12 28  1  0  0  0  0
 13 14  1  0  0  0  0
 13 29  1  0  0  0  0
 14 15  1  0  0  0  0
 14 16  2  0  0  0  0
 16 17  1  0  0  0  0
 16 30  1  0  0  0  0
 17 18  1  0  0  0  0
 19 20  1  0  0  0  0
 20 21  1  0  0  0  0
M  END
$$$$
