ZINC000000027770      none
 OpenBabel11202420153D

 39 40  0  0  0  0  0  0  0  0999 V2000
   32.6336   38.4434   67.9174 O   0  0  0  0  0  0  0  0  0  0  0  0
   33.1223   38.9809   66.9428 C   0  0  0  0  0  0  0  0  0  0  0  0
   33.4197   38.2516   65.8492 N   0  0  0  0  0  0  0  0  0  0  0  0
   33.1537   36.8111   65.8349 C   0  0  0  0  0  0  0  0  0  0  0  0
   31.7407   36.5585   65.3049 C   0  0  0  0  0  0  0  0  0  0  0  0
   31.6271   37.0910   63.9406 N   0  0  0  0  0  0  0  0  0  0  0  0
   30.2297   37.3981   63.6102 C   0  0  0  0  0  0  0  0  0  0  0  0
   30.1660   38.0831   62.2431 C   0  0  0  0  0  0  0  0  0  0  0  0
   30.7685   37.1555   61.1842 C   0  0  0  0  0  0  0  0  0  0  0  0
   32.2081   36.8124   61.5773 C   0  0  0  0  0  0  0  0  0  0  0  0
   32.2125   36.1641   62.9635 C   0  0  0  0  0  0  0  0  0  0  0  0
   33.3907   40.4347   66.9574 C   0  0  0  0  0  0  0  0  0  0  0  0
   34.6919   40.9092   66.7822 C   0  0  0  0  0  0  0  0  0  0  0  0
   34.9354   42.2668   66.7964 C   0  0  0  0  0  0  0  0  0  0  0  0
   33.8930   43.1579   66.9850 C   0  0  0  0  0  0  0  0  0  0  0  0
   32.6018   42.6942   67.1590 C   0  0  0  0  0  0  0  0  0  0  0  0
   32.3444   41.3388   67.1461 C   0  0  0  0  0  0  0  0  0  0  0  0
   30.9617   40.8445   67.3328 N   0  0  0  0  0  0  0  0  0  0  0  0
   30.7363   39.6476   67.3219 O   0  0  0  0  0  0  0  0  0  0  0  0
   30.0495   41.6346   67.4973 O   0  0  0  0  0  0  0  0  0  0  0  0
   33.8096   38.6805   65.0716 H   0  0  0  0  0  0  0  0  0  0  0  0
   33.8780   36.3143   65.1893 H   0  0  0  0  0  0  0  0  0  0  0  0
   33.2380   36.4159   66.8472 H   0  0  0  0  0  0  0  0  0  0  0  0
   31.5430   35.4866   65.2942 H   0  0  0  0  0  0  0  0  0  0  0  0
   31.0164   37.0552   65.9505 H   0  0  0  0  0  0  0  0  0  0  0  0
   29.6521   36.4741   63.5806 H   0  0  0  0  0  0  0  0  0  0  0  0
   29.8145   38.0616   64.3687 H   0  0  0  0  0  0  0  0  0  0  0  0
   30.7320   39.0140   62.2760 H   0  0  0  0  0  0  0  0  0  0  0  0
   29.1273   38.2968   61.9912 H   0  0  0  0  0  0  0  0  0  0  0  0
   30.7647   37.6567   60.2164 H   0  0  0  0  0  0  0  0  0  0  0  0
   30.1793   36.2405   61.1239 H   0  0  0  0  0  0  0  0  0  0  0  0
   32.8062   37.7233   61.5995 H   0  0  0  0  0  0  0  0  0  0  0  0
   32.6283   36.1181   60.8495 H   0  0  0  0  0  0  0  0  0  0  0  0
   33.2375   35.9315   63.2524 H   0  0  0  0  0  0  0  0  0  0  0  0
   31.6256   35.2460   62.9371 H   0  0  0  0  0  0  0  0  0  0  0  0
   35.5053   40.2149   66.6312 H   0  0  0  0  0  0  0  0  0  0  0  0
   35.9416   42.6351   66.6608 H   0  0  0  0  0  0  0  0  0  0  0  0
   34.0890   44.2199   66.9956 H   0  0  0  0  0  0  0  0  0  0  0  0
   31.7931   43.3949   67.3057 H   0  0  0  0  0  0  0  0  0  0  0  0
  1  2  2  0  0  0  0
  2  3  1  0  0  0  0
  2 12  1  0  0  0  0
  3  4  1  0  0  0  0
  3 21  1  0  0  0  0
  4  5  1  0  0  0  0
  4 22  1  0  0  0  0
  4 23  1  0  0  0  0
  5  6  1  0  0  0  0
  5 24  1  0  0  0  0
  5 25  1  0  0  0  0
  6 11  1  0  0  0  0
  6  7  1  0  0  0  0
  7  8  1  0  0  0  0
  7 26  1  0  0  0  0
  7 27  1  0  0  0  0
  8  9  1  0  0  0  0
  8 28  1  0  0  0  0
  8 29  1  0  0  0  0
  9 10  1  0  0  0  0
  9 30  1  0  0  0  0
  9 31  1  0  0  0  0
 10 11  1  0  0  0  0
 10 32  1  0  0  0  0
 10 33  1  0  0  0  0
 11 34  1  0  0  0  0
 11 35  1  0  0  0  0
 12 17  2  0  0  0  0
 12 13  1  0  0  0  0
 13 14  2  0  0  0  0
 13 36  1  0  0  0  0
 14 15  1  0  0  0  0
 14 37  1  0  0  0  0
 15 16  2  0  0  0  0
 15 38  1  0  0  0  0
 16 17  1  0  0  0  0
 16 39  1  0  0  0  0
 17 18  1  0  0  0  0
 18 19  2  0  0  0  0
 18 20  2  0  0  0  0
M  END
$$$$
