ZINC000000033934      none
 OpenBabel11202420153D

 39 41  0  0  0  0  0  0  0  0999 V2000
   31.2729   33.7067   62.4745 O   0  0  0  0  0  0  0  0  0  0  0  0
   31.5686   34.4624   61.5628 C   0  0  0  0  0  0  0  0  0  0  0  0
   31.3313   34.0867   60.2220 C   0  0  0  0  0  0  0  0  0  0  0  0
   31.6854   34.9650   59.2408 C   0  0  0  0  0  0  0  0  0  0  0  0
   32.2578   36.2007   59.6233 C   0  0  0  0  0  0  0  0  0  0  0  0
   32.6513   37.1854   58.5858 C   0  0  0  0  0  0  0  0  0  0  0  0
   32.6097   38.5500   58.8659 C   0  0  0  0  0  0  0  0  0  0  0  0
   32.9811   39.4620   57.8997 C   0  0  0  0  0  0  0  0  0  0  0  0
   33.3845   39.0235   56.6487 C   0  0  0  0  0  0  0  0  0  0  0  0
   33.7419   39.9202   55.7035 F   0  0  0  0  0  0  0  0  0  0  0  0
   33.4226   37.6679   56.3643 C   0  0  0  0  0  0  0  0  0  0  0  0
   33.0580   36.7487   57.3263 C   0  0  0  0  0  0  0  0  0  0  0  0
   32.4466   36.4773   60.8920 N   0  0  0  0  0  0  0  0  0  0  0  0
   32.1236   35.6598   61.8277 N   0  0  0  0  0  0  0  0  0  0  0  0
   32.3663   36.0402   63.2215 C   0  0  0  0  0  0  0  0  0  0  0  0
   31.1868   36.7375   63.7514 N   0  0  0  0  0  0  0  0  0  0  0  0
   31.1142   38.1120   63.2397 C   0  0  0  0  0  0  0  0  0  0  0  0
   29.8032   38.7581   63.6933 C   0  0  0  0  0  0  0  0  0  0  0  0
   29.7430   38.7592   65.2233 C   0  0  0  0  0  0  0  0  0  0  0  0
   29.8690   37.3206   65.7323 C   0  0  0  0  0  0  0  0  0  0  0  0
   31.1783   36.7163   65.2196 C   0  0  0  0  0  0  0  0  0  0  0  0
   30.8877   33.1318   59.9813 H   0  0  0  0  0  0  0  0  0  0  0  0
   31.5297   34.7249   58.1995 H   0  0  0  0  0  0  0  0  0  0  0  0
   32.2912   38.8929   59.8393 H   0  0  0  0  0  0  0  0  0  0  0  0
   32.9529   40.5196   58.1170 H   0  0  0  0  0  0  0  0  0  0  0  0
   33.7379   37.3305   55.3881 H   0  0  0  0  0  0  0  0  0  0  0  0
   33.0880   35.6922   57.1038 H   0  0  0  0  0  0  0  0  0  0  0  0
   32.5561   35.1455   63.8146 H   0  0  0  0  0  0  0  0  0  0  0  0
   33.2321   36.7004   63.2726 H   0  0  0  0  0  0  0  0  0  0  0  0
   31.9554   38.6880   63.6256 H   0  0  0  0  0  0  0  0  0  0  0  0
   31.1540   38.0968   62.1506 H   0  0  0  0  0  0  0  0  0  0  0  0
   28.9616   38.1907   63.2963 H   0  0  0  0  0  0  0  0  0  0  0  0
   29.7562   39.7835   63.3265 H   0  0  0  0  0  0  0  0  0  0  0  0
   28.7916   39.1790   65.5500 H   0  0  0  0  0  0  0  0  0  0  0  0
   30.5623   39.3590   65.6196 H   0  0  0  0  0  0  0  0  0  0  0  0
   29.0284   36.7304   65.3673 H   0  0  0  0  0  0  0  0  0  0  0  0
   29.8693   37.3183   66.8223 H   0  0  0  0  0  0  0  0  0  0  0  0
   31.2644   35.6872   65.5684 H   0  0  0  0  0  0  0  0  0  0  0  0
   32.0191   37.2987   65.5962 H   0  0  0  0  0  0  0  0  0  0  0  0
  1  2  2  0  0  0  0
  2 14  1  0  0  0  0
  2  3  1  0  0  0  0
  3  4  2  0  0  0  0
  3 22  1  0  0  0  0
  4  5  1  0  0  0  0
  4 23  1  0  0  0  0
  5  6  1  0  0  0  0
  5 13  2  0  0  0  0
  6 12  2  0  0  0  0
  6  7  1  0  0  0  0
  7  8  2  0  0  0  0
  7 24  1  0  0  0  0
  8  9  1  0  0  0  0
  8 25  1  0  0  0  0
  9 10  1  0  0  0  0
  9 11  2  0  0  0  0
 11 12  1  0  0  0  0
 11 26  1  0  0  0  0
 12 27  1  0  0  0  0
 13 14  1  0  0  0  0
 14 15  1  0  0  0  0
 15 16  1  0  0  0  0
 15 28  1  0  0  0  0
 15 29  1  0  0  0  0
 16 21  1  0  0  0  0
 16 17  1  0  0  0  0
 17 18  1  0  0  0  0
 17 30  1  0  0  0  0
 17 31  1  0  0  0  0
 18 19  1  0  0  0  0
 18 32  1  0  0  0  0
 18 33  1  0  0  0  0
 19 20  1  0  0  0  0
 19 34  1  0  0  0  0
 19 35  1  0  0  0  0
 20 21  1  0  0  0  0
 20 36  1  0  0  0  0
 20 37  1  0  0  0  0
 21 38  1  0  0  0  0
 21 39  1  0  0  0  0
M  END
$$$$
