ZINC000000056555      none
 OpenBabel11202420153D

 46 48  0  0  0  0  0  0  0  0999 V2000
   31.6722   36.3391   65.2550 C   0  0  0  0  0  0  0  0  0  0  0  0
   30.8222   35.6186   64.3603 O   0  0  0  0  0  0  0  0  0  0  0  0
   31.1832   35.5962   63.0493 C   0  0  0  0  0  0  0  0  0  0  0  0
   32.0029   34.5862   62.5720 C   0  0  0  0  0  0  0  0  0  0  0  0
   32.3736   34.5681   61.2403 C   0  0  0  0  0  0  0  0  0  0  0  0
   31.9233   35.5529   60.3808 C   0  0  0  0  0  0  0  0  0  0  0  0
   32.3308   35.5287   58.9302 C   0  0  0  0  0  0  0  0  0  0  0  0
   32.7393   36.9140   58.4998 C   0  0  0  0  0  0  0  0  0  0  0  0
   32.6953   37.9083   59.3566 N   0  0  0  0  0  0  0  0  0  0  0  0
   33.0474   39.1462   59.0378 C   0  0  0  0  0  0  0  0  0  0  0  0
   33.4712   39.4733   57.7855 C   0  0  0  0  0  0  0  0  0  0  0  0
   33.5396   38.4618   56.8102 C   0  0  0  0  0  0  0  0  0  0  0  0
   33.9658   38.7180   55.4994 C   0  0  0  0  0  0  0  0  0  0  0  0
   34.0109   37.6963   54.5946 C   0  0  0  0  0  0  0  0  0  0  0  0
   34.4235   37.9436   53.3237 O   0  0  0  0  0  0  0  0  0  0  0  0
   35.8216   37.8129   53.0584 C   0  0  0  0  0  0  0  0  0  0  0  0
   33.6372   36.3937   54.9604 C   0  0  0  0  0  0  0  0  0  0  0  0
   33.6929   35.3965   54.0382 O   0  0  0  0  0  0  0  0  0  0  0  0
   32.5183   35.1694   53.2566 C   0  0  0  0  0  0  0  0  0  0  0  0
   33.2193   36.1144   56.2289 C   0  0  0  0  0  0  0  0  0  0  0  0
   33.1616   37.1444   57.1817 C   0  0  0  0  0  0  0  0  0  0  0  0
   31.1006   36.5602   60.8494 C   0  0  0  0  0  0  0  0  0  0  0  0
   30.7254   36.5843   62.1830 C   0  0  0  0  0  0  0  0  0  0  0  0
   29.9160   37.5745   62.6455 O   0  0  0  0  0  0  0  0  0  0  0  0
   28.5077   37.3372   62.5968 C   0  0  0  0  0  0  0  0  0  0  0  0
   32.6722   35.9060   65.2340 H   0  0  0  0  0  0  0  0  0  0  0  0
   31.7222   37.3834   64.9470 H   0  0  0  0  0  0  0  0  0  0  0  0
   31.2707   36.2774   66.2664 H   0  0  0  0  0  0  0  0  0  0  0  0
   32.3560   33.8156   63.2413 H   0  0  0  0  0  0  0  0  0  0  0  0
   33.0165   33.7831   60.8705 H   0  0  0  0  0  0  0  0  0  0  0  0
   33.1702   34.8455   58.7999 H   0  0  0  0  0  0  0  0  0  0  0  0
   31.4909   35.1923   58.3224 H   0  0  0  0  0  0  0  0  0  0  0  0
   32.9926   39.9178   59.7915 H   0  0  0  0  0  0  0  0  0  0  0  0
   33.7488   40.4892   57.5458 H   0  0  0  0  0  0  0  0  0  0  0  0
   34.2563   39.7164   55.2074 H   0  0  0  0  0  0  0  0  0  0  0  0
   36.1389   36.7931   53.2761 H   0  0  0  0  0  0  0  0  0  0  0  0
   36.0149   38.0376   52.0095 H   0  0  0  0  0  0  0  0  0  0  0  0
   36.3773   38.5084   53.6873 H   0  0  0  0  0  0  0  0  0  0  0  0
   31.6879   34.9137   53.9146 H   0  0  0  0  0  0  0  0  0  0  0  0
   32.2739   36.0724   52.6972 H   0  0  0  0  0  0  0  0  0  0  0  0
   32.6972   34.3489   52.5618 H   0  0  0  0  0  0  0  0  0  0  0  0
   32.9343   35.1080   56.4981 H   0  0  0  0  0  0  0  0  0  0  0  0
   30.7500   37.3283   60.1758 H   0  0  0  0  0  0  0  0  0  0  0  0
   27.9792   38.2036   62.9945 H   0  0  0  0  0  0  0  0  0  0  0  0
   28.2664   36.4585   63.1948 H   0  0  0  0  0  0  0  0  0  0  0  0
   28.2031   37.1685   61.5638 H   0  0  0  0  0  0  0  0  0  0  0  0
  1  2  1  0  0  0  0
  1 26  1  0  0  0  0
  1 27  1  0  0  0  0
  1 28  1  0  0  0  0
  2  3  1  0  0  0  0
  3 23  2  0  0  0  0
  3  4  1  0  0  0  0
  4  5  2  0  0  0  0
  4 29  1  0  0  0  0
  5  6  1  0  0  0  0
  5 30  1  0  0  0  0
  6  7  1  0  0  0  0
  6 22  2  0  0  0  0
  7  8  1  0  0  0  0
  7 31  1  0  0  0  0
  7 32  1  0  0  0  0
  8 21  2  0  0  0  0
  8  9  1  0  0  0  0
  9 10  2  0  0  0  0
 10 11  1  0  0  0  0
 10 33  1  0  0  0  0
 11 12  2  0  0  0  0
 11 34  1  0  0  0  0
 12 21  1  0  0  0  0
 12 13  1  0  0  0  0
 13 14  2  0  0  0  0
 13 35  1  0  0  0  0
 14 15  1  0  0  0  0
 14 17  1  0  0  0  0
 15 16  1  0  0  0  0
 16 36  1  0  0  0  0
 16 37  1  0  0  0  0
 16 38  1  0  0  0  0
 17 18  1  0  0  0  0
 17 20  2  0  0  0  0
 18 19  1  0  0  0  0
 19 39  1  0  0  0  0
 19 40  1  0  0  0  0
 19 41  1  0  0  0  0
 20 21  1  0  0  0  0
 20 42  1  0  0  0  0
 22 23  1  0  0  0  0
 22 43  1  0  0  0  0
 23 24  1  0  0  0  0
 24 25  1  0  0  0  0
 25 44  1  0  0  0  0
 25 45  1  0  0  0  0
 25 46  1  0  0  0  0
M  END
$$$$
