ZINC000000034233      none
 OpenBabel11202420153D

 28 29  0  0  0  0  0  0  0  0999 V2000
   32.9975   39.0881   66.3567 C   0  0  0  0  0  0  0  0  0  0  0  0
   32.1184   37.9345   66.1506 N   0  0  0  0  0  0  0  0  0  0  0  0
   32.6723   36.5786   66.1709 C   0  0  0  0  0  0  0  0  0  0  0  0
   30.7999   38.1209   65.9424 C   0  0  0  0  0  0  0  0  0  0  0  0
   30.3413   39.2435   65.9254 O   0  0  0  0  0  0  0  0  0  0  0  0
   29.8955   36.9342   65.7305 C   0  0  0  0  0  0  0  0  0  0  0  0
   30.3381   36.1873   64.5506 N   0  0  0  0  0  0  0  0  0  0  0  0
   30.4606   34.8485   64.4544 C   0  0  0  0  0  0  0  0  0  0  0  0
   30.2188   34.0555   65.3440 O   0  0  0  0  0  0  0  0  0  0  0  0
   30.8903   34.5262   63.2243 O   0  0  0  0  0  0  0  0  0  0  0  0
   31.0543   35.6594   62.4987 C   0  0  0  0  0  0  0  0  0  0  0  0
   31.4697   35.8972   61.1979 C   0  0  0  0  0  0  0  0  0  0  0  0
   31.5396   37.1923   60.7228 C   0  0  0  0  0  0  0  0  0  0  0  0
   31.1967   38.2556   61.5399 C   0  0  0  0  0  0  0  0  0  0  0  0
   30.7821   38.0285   62.8378 C   0  0  0  0  0  0  0  0  0  0  0  0
   30.7040   36.7311   63.3196 C   0  0  0  0  0  0  0  0  0  0  0  0
   33.0482   39.3210   67.4204 H   0  0  0  0  0  0  0  0  0  0  0  0
   33.9963   38.8542   65.9881 H   0  0  0  0  0  0  0  0  0  0  0  0
   32.6024   39.9475   65.8151 H   0  0  0  0  0  0  0  0  0  0  0  0
   31.8732   35.8570   66.0007 H   0  0  0  0  0  0  0  0  0  0  0  0
   33.4230   36.4808   65.3867 H   0  0  0  0  0  0  0  0  0  0  0  0
   33.1330   36.3887   67.1404 H   0  0  0  0  0  0  0  0  0  0  0  0
   29.9347   36.2866   66.6064 H   0  0  0  0  0  0  0  0  0  0  0  0
   28.8726   37.2793   65.5794 H   0  0  0  0  0  0  0  0  0  0  0  0
   31.7386   35.0709   60.5565 H   0  0  0  0  0  0  0  0  0  0  0  0
   31.8631   37.3762   59.7089 H   0  0  0  0  0  0  0  0  0  0  0  0
   31.2538   39.2656   61.1617 H   0  0  0  0  0  0  0  0  0  0  0  0
   30.5152   38.8593   63.4740 H   0  0  0  0  0  0  0  0  0  0  0  0
  1  2  1  0  0  0  0
  1 17  1  0  0  0  0
  1 18  1  0  0  0  0
  1 19  1  0  0  0  0
  2  3  1  0  0  0  0
  2  4  1  0  0  0  0
  3 20  1  0  0  0  0
  3 21  1  0  0  0  0
  3 22  1  0  0  0  0
  4  5  2  0  0  0  0
  4  6  1  0  0  0  0
  6  7  1  0  0  0  0
  6 23  1  0  0  0  0
  6 24  1  0  0  0  0
  7 16  1  0  0  0  0
  7  8  1  0  0  0  0
  8  9  2  0  0  0  0
  8 10  1  0  0  0  0
 10 11  1  0  0  0  0
 11 16  2  0  0  0  0
 11 12  1  0  0  0  0
 12 13  2  0  0  0  0
 12 25  1  0  0  0  0
 13 14  1  0  0  0  0
 13 26  1  0  0  0  0
 14 15  2  0  0  0  0
 14 27  1  0  0  0  0
 15 16  1  0  0  0  0
 15 28  1  0  0  0  0
M  END
$$$$
