ZINC000000029470      none
 OpenBabel11202420163D

 31 31  0  0  0  0  0  0  0  0999 V2000
   32.5610   36.6753   65.9327 C   0  0  0  0  0  0  0  0  0  0  0  0
   31.8111   37.2819   65.0463 C   0  0  0  0  0  0  0  0  0  0  0  0
   32.2680   37.3804   63.6136 C   0  0  0  0  0  0  0  0  0  0  0  0
   31.2919   36.7205   62.7432 N   0  0  0  0  0  0  0  0  0  0  0  0
   30.9948   35.2972   62.9227 C   0  0  0  0  0  0  0  0  0  0  0  0
   32.2548   34.4930   62.7320 C   0  0  0  0  0  0  0  0  0  0  0  0
   32.3166   33.5860   61.7889 C   0  0  0  0  0  0  0  0  0  0  0  0
   30.5242   37.5832   61.5563 S   0  0  0  0  0  0  0  0  0  0  0  0
   30.5678   38.9454   61.9586 O   0  0  0  0  0  0  0  0  0  0  0  0
   29.3135   36.8933   61.2779 O   0  0  0  0  0  0  0  0  0  0  0  0
   31.5115   37.4621   60.1020 C   0  0  0  0  0  0  0  0  0  0  0  0
   31.6082   36.2570   59.4313 C   0  0  0  0  0  0  0  0  0  0  0  0
   32.3778   36.1623   58.2873 C   0  0  0  0  0  0  0  0  0  0  0  0
   33.0615   37.2716   57.8195 C   0  0  0  0  0  0  0  0  0  0  0  0
   33.8192   37.1785   56.7050 F   0  0  0  0  0  0  0  0  0  0  0  0
   32.9684   38.4766   58.4954 C   0  0  0  0  0  0  0  0  0  0  0  0
   32.1933   38.5705   59.6357 C   0  0  0  0  0  0  0  0  0  0  0  0
   33.5068   36.2460   65.6370 H   0  0  0  0  0  0  0  0  0  0  0  0
   32.2335   36.6047   66.9596 H   0  0  0  0  0  0  0  0  0  0  0  0
   30.8653   37.7111   65.3422 H   0  0  0  0  0  0  0  0  0  0  0  0
   33.2374   36.8936   63.5071 H   0  0  0  0  0  0  0  0  0  0  0  0
   32.3555   38.4296   63.3316 H   0  0  0  0  0  0  0  0  0  0  0  0
   30.6062   35.1310   63.9275 H   0  0  0  0  0  0  0  0  0  0  0  0
   30.2507   34.9859   62.1894 H   0  0  0  0  0  0  0  0  0  0  0  0
   33.1071   34.6644   63.3729 H   0  0  0  0  0  0  0  0  0  0  0  0
   31.4643   33.4144   61.1481 H   0  0  0  0  0  0  0  0  0  0  0  0
   33.2196   33.0096   61.6522 H   0  0  0  0  0  0  0  0  0  0  0  0
   31.0790   35.3905   59.7991 H   0  0  0  0  0  0  0  0  0  0  0  0
   32.4500   35.2218   57.7612 H   0  0  0  0  0  0  0  0  0  0  0  0
   33.5015   39.3425   58.1316 H   0  0  0  0  0  0  0  0  0  0  0  0
   32.1205   39.5103   60.1629 H   0  0  0  0  0  0  0  0  0  0  0  0
  1  2  2  0  0  0  0
  1 18  1  0  0  0  0
  1 19  1  0  0  0  0
  2  3  1  0  0  0  0
  2 20  1  0  0  0  0
  3  4  1  0  0  0  0
  3 21  1  0  0  0  0
  3 22  1  0  0  0  0
  4  5  1  0  0  0  0
  4  8  1  0  0  0  0
  5  6  1  0  0  0  0
  5 23  1  0  0  0  0
  5 24  1  0  0  0  0
  6  7  2  0  0  0  0
  6 25  1  0  0  0  0
  7 26  1  0  0  0  0
  7 27  1  0  0  0  0
  8  9  2  0  0  0  0
  8 10  2  0  0  0  0
  8 11  1  0  0  0  0
 11 17  2  0  0  0  0
 11 12  1  0  0  0  0
 12 13  2  0  0  0  0
 12 28  1  0  0  0  0
 13 14  1  0  0  0  0
 13 29  1  0  0  0  0
 14 15  1  0  0  0  0
 14 16  2  0  0  0  0
 16 17  1  0  0  0  0
 16 30  1  0  0  0  0
 17 31  1  0  0  0  0
M  END
$$$$
