ZINC000000029877      none
 OpenBabel11202420163D

 24 24  0  0  0  0  0  0  0  0999 V2000
   29.0095   36.9060   65.3523 N   0  0  0  0  0  0  0  0  0  0  0  0
   29.2590   36.1366   64.5547 C   0  0  0  0  0  0  0  0  0  0  0  0
   29.5826   35.1395   63.5212 C   0  0  0  0  0  0  0  0  0  0  0  0
   30.5321   35.7164   62.5663 N   0  0  0  0  0  0  0  0  0  0  0  0
   31.9730   35.5852   62.7959 C   0  0  0  0  0  0  0  0  0  0  0  0
   32.4610   34.3510   62.1591 C   0  0  0  0  0  0  0  0  0  0  0  0
   32.8375   33.3985   61.6678 N   0  0  0  0  0  0  0  0  0  0  0  0
   30.0798   36.3678   61.4764 C   0  0  0  0  0  0  0  0  0  0  0  0
   28.8842   36.4765   61.2860 O   0  0  0  0  0  0  0  0  0  0  0  0
   31.0378   36.9500   60.5126 C   0  0  0  0  0  0  0  0  0  0  0  0
   31.4870   38.2616   60.6761 C   0  0  0  0  0  0  0  0  0  0  0  0
   32.3805   38.7995   59.7734 C   0  0  0  0  0  0  0  0  0  0  0  0
   32.8319   38.0423   58.7070 C   0  0  0  0  0  0  0  0  0  0  0  0
   32.3909   36.7410   58.5385 C   0  0  0  0  0  0  0  0  0  0  0  0
   33.0143   35.7149   57.0776 Br  0  0  0  0  0  0  0  0  0  0  0  0
   31.4966   36.1910   59.4353 C   0  0  0  0  0  0  0  0  0  0  0  0
   28.6713   34.8501   62.9977 H   0  0  0  0  0  0  0  0  0  0  0  0
   30.0267   34.2613   63.9898 H   0  0  0  0  0  0  0  0  0  0  0  0
   32.4889   36.4440   62.3666 H   0  0  0  0  0  0  0  0  0  0  0  0
   32.1677   35.5428   63.8675 H   0  0  0  0  0  0  0  0  0  0  0  0
   31.1353   38.8542   61.5078 H   0  0  0  0  0  0  0  0  0  0  0  0
   32.7287   39.8140   59.8994 H   0  0  0  0  0  0  0  0  0  0  0  0
   33.5312   38.4684   58.0028 H   0  0  0  0  0  0  0  0  0  0  0  0
   31.1564   35.1742   59.3056 H   0  0  0  0  0  0  0  0  0  0  0  0
  1  2  3  0  0  0  0
  2  3  1  0  0  0  0
  3  4  1  0  0  0  0
  3 17  1  0  0  0  0
  3 18  1  0  0  0  0
  4  5  1  0  0  0  0
  4  8  1  0  0  0  0
  5  6  1  0  0  0  0
  5 19  1  0  0  0  0
  5 20  1  0  0  0  0
  6  7  3  0  0  0  0
  8  9  2  0  0  0  0
  8 10  1  0  0  0  0
 10 16  2  0  0  0  0
 10 11  1  0  0  0  0
 11 12  2  0  0  0  0
 11 21  1  0  0  0  0
 12 13  1  0  0  0  0
 12 22  1  0  0  0  0
 13 14  2  0  0  0  0
 13 23  1  0  0  0  0
 14 15  1  0  0  0  0
 14 16  1  0  0  0  0
 16 24  1  0  0  0  0
M  END
$$$$
