ZINC000000043415      none
 OpenBabel11202420153D

 47 49  0  0  1  0  0  0  0  0999 V2000
   37.1572   42.5368   66.9384 C   0  0  0  0  0  0  0  0  0  0  0  0
   36.3266   42.0575   68.1305 C   0  0  0  0  0  0  0  0  0  0  0  0
   34.9477   42.5310   67.9869 N   0  0  0  0  0  0  0  0  0  0  0  0
   34.6699   43.9678   67.9171 C   0  0  0  0  0  0  0  0  0  0  0  0
   33.9847   44.2906   66.5879 C   0  0  0  0  0  0  0  0  0  0  0  0
   33.8974   41.6129   67.9173 C   0  0  0  0  0  0  0  0  0  0  0  0
   34.1108   40.3524   67.3709 C   0  0  0  0  0  0  0  0  0  0  0  0
   33.0728   39.4442   67.3024 C   0  0  0  0  0  0  0  0  0  0  0  0
   31.8196   39.7858   67.7752 C   0  0  0  0  0  0  0  0  0  0  0  0
   30.6896   38.7917   67.6985 C   0  0  1  0  0  0  0  0  0  0  0  0
   30.3259   38.5882   68.7056 H   0  0  0  0  0  0  0  0  0  0  0  0
   29.6051   39.3631   66.9065 N   0  0  0  0  0  0  0  0  0  0  0  0
   29.5292   39.2219   65.5645 C   0  0  0  0  0  0  0  0  0  0  0  0
   28.6865   39.8079   64.9101 O   0  0  0  0  0  0  0  0  0  0  0  0
   30.5145   38.3240   64.9273 C   0  0  0  0  0  0  0  0  0  0  0  0
   31.3110   37.5062   65.7229 C   0  0  0  0  0  0  0  0  0  0  0  0
   32.3507   36.5667   64.7695 S   0  0  0  0  0  0  0  0  0  0  0  0
   31.7393   37.2597   63.2769 C   0  0  0  0  0  0  0  0  0  0  0  0
   32.2259   36.8876   61.9000 C   0  0  0  0  0  0  0  0  0  0  0  0
   30.7927   38.1547   63.5231 C   0  0  0  0  0  0  0  0  0  0  0  0
   30.0776   38.9208   62.4402 C   0  0  0  0  0  0  0  0  0  0  0  0
   31.1891   37.5419   67.1068 N   0  0  0  0  0  0  0  0  0  0  0  0
   31.6008   41.0427   68.3212 C   0  0  0  0  0  0  0  0  0  0  0  0
   30.3685   41.3765   68.7866 O   0  0  0  0  0  0  0  0  0  0  0  0
   32.6402   41.9571   68.3924 C   0  0  0  0  0  0  0  0  0  0  0  0
   38.1832   42.1845   67.0452 H   0  0  0  0  0  0  0  0  0  0  0  0
   36.7312   42.1410   66.0163 H   0  0  0  0  0  0  0  0  0  0  0  0
   37.1488   43.6262   66.9042 H   0  0  0  0  0  0  0  0  0  0  0  0
   36.7524   42.4533   69.0526 H   0  0  0  0  0  0  0  0  0  0  0  0
   36.3350   40.9682   68.1648 H   0  0  0  0  0  0  0  0  0  0  0  0
   34.0158   44.2517   68.7415 H   0  0  0  0  0  0  0  0  0  0  0  0
   35.6055   44.5226   67.9879 H   0  0  0  0  0  0  0  0  0  0  0  0
   33.7779   45.3597   66.5360 H   0  0  0  0  0  0  0  0  0  0  0  0
   34.6387   44.0067   65.7635 H   0  0  0  0  0  0  0  0  0  0  0  0
   33.0491   43.7359   66.5172 H   0  0  0  0  0  0  0  0  0  0  0  0
   35.0889   40.0832   67.0005 H   0  0  0  0  0  0  0  0  0  0  0  0
   33.2402   38.4651   66.8782 H   0  0  0  0  0  0  0  0  0  0  0  0
   28.9109   39.8648   67.3616 H   0  0  0  0  0  0  0  0  0  0  0  0
   33.0555   37.5369   61.6201 H   0  0  0  0  0  0  0  0  0  0  0  0
   32.5606   35.8504   61.9010 H   0  0  0  0  0  0  0  0  0  0  0  0
   31.4135   37.0066   61.1831 H   0  0  0  0  0  0  0  0  0  0  0  0
   30.6176   39.8443   62.2313 H   0  0  0  0  0  0  0  0  0  0  0  0
   30.0315   38.3143   61.5359 H   0  0  0  0  0  0  0  0  0  0  0  0
   29.0663   39.1582   62.7705 H   0  0  0  0  0  0  0  0  0  0  0  0
   31.4238   36.7777   67.6561 H   0  0  0  0  0  0  0  0  0  0  0  0
   30.3139   42.2719   69.1480 H   0  0  0  0  0  0  0  0  0  0  0  0
   32.4728   42.9341   68.8211 H   0  0  0  0  0  0  0  0  0  0  0  0
  1  2  1  0  0  0  0
  1 26  1  0  0  0  0
  1 27  1  0  0  0  0
  1 28  1  0  0  0  0
  2  3  1  0  0  0  0
  2 29  1  0  0  0  0
  2 30  1  0  0  0  0
  3  4  1  0  0  0  0
  3  6  1  0  0  0  0
  4  5  1  0  0  0  0
  4 31  1  0  0  0  0
  4 32  1  0  0  0  0
  5 33  1  0  0  0  0
  5 34  1  0  0  0  0
  5 35  1  0  0  0  0
  6 25  2  0  0  0  0
  6  7  1  0  0  0  0
  7  8  2  0  0  0  0
  7 36  1  0  0  0  0
  8  9  1  0  0  0  0
  8 37  1  0  0  0  0
  9 10  1  0  0  0  0
  9 23  2  0  0  0  0
 10 11  1  1  0  0  0
 10 22  1  0  0  0  0
 10 12  1  0  0  0  0
 12 13  1  0  0  0  0
 12 38  1  0  0  0  0
 13 14  2  0  0  0  0
 13 15  1  0  0  0  0
 15 20  1  0  0  0  0
 15 16  2  0  0  0  0
 16 17  1  0  0  0  0
 16 22  1  0  0  0  0
 17 18  1  0  0  0  0
 18 19  1  0  0  0  0
 18 20  2  0  0  0  0
 19 39  1  0  0  0  0
 19 40  1  0  0  0  0
 19 41  1  0  0  0  0
 20 21  1  0  0  0  0
 21 42  1  0  0  0  0
 21 43  1  0  0  0  0
 21 44  1  0  0  0  0
 22 45  1  0  0  0  0
 23 24  1  0  0  0  0
 23 25  1  0  0  0  0
 24 46  1  0  0  0  0
 25 47  1  0  0  0  0
M  END
$$$$
