ZINC000000001848      none
 OpenBabel11202420153D

 40 42  0  0  0  0  0  0  0  0999 V2000
   29.5296   35.9018   64.4018 O   0  0  0  0  0  0  0  0  0  0  0  0
   30.0511   36.9230   63.9971 C   0  0  0  0  0  0  0  0  0  0  0  0
   30.4971   37.9524   64.9540 C   0  0  0  0  0  0  0  0  0  0  0  0
   29.9643   39.2428   64.8974 C   0  0  0  0  0  0  0  0  0  0  0  0
   30.3886   40.2013   65.7913 C   0  0  0  0  0  0  0  0  0  0  0  0
   31.3350   39.8897   66.7555 C   0  0  0  0  0  0  0  0  0  0  0  0
   31.8706   38.6207   66.8239 C   0  0  0  0  0  0  0  0  0  0  0  0
   31.4590   37.6420   65.9276 C   0  0  0  0  0  0  0  0  0  0  0  0
   31.9968   36.3621   65.9953 N   0  0  0  0  0  0  0  0  0  0  0  0
   31.8499   35.6054   67.1553 C   0  0  0  0  0  0  0  0  0  0  0  0
   32.8009   35.6652   68.1737 C   0  0  0  0  0  0  0  0  0  0  0  0
   32.6154   34.9043   69.3089 C   0  0  0  0  0  0  0  0  0  0  0  0
   31.5612   34.1199   69.4331 N   0  0  0  0  0  0  0  0  0  0  0  0
   30.6423   34.0317   68.4898 C   0  0  0  0  0  0  0  0  0  0  0  0
   30.7507   34.7642   67.3263 C   0  0  0  0  0  0  0  0  0  0  0  0
   30.2216   37.1140   62.6738 N   0  0  0  0  0  0  0  0  0  0  0  0
   30.8447   38.3453   62.1693 C   0  0  0  0  0  0  0  0  0  0  0  0
   32.0172   37.9601   61.2543 C   0  0  0  0  0  0  0  0  0  0  0  0
   31.5136   37.0166   60.1595 C   0  0  0  0  0  0  0  0  0  0  0  0
   30.9617   35.7399   60.7980 C   0  0  0  0  0  0  0  0  0  0  0  0
   29.7825   36.0975   61.7081 C   0  0  0  0  0  0  0  0  0  0  0  0
   29.2240   39.4897   64.1509 H   0  0  0  0  0  0  0  0  0  0  0  0
   29.9791   41.1995   65.7432 H   0  0  0  0  0  0  0  0  0  0  0  0
   31.6584   40.6477   67.4537 H   0  0  0  0  0  0  0  0  0  0  0  0
   32.6103   38.3873   67.5754 H   0  0  0  0  0  0  0  0  0  0  0  0
   32.4744   35.9959   65.2345 H   0  0  0  0  0  0  0  0  0  0  0  0
   33.6683   36.3012   68.0763 H   0  0  0  0  0  0  0  0  0  0  0  0
   33.3447   34.9473   70.1043 H   0  0  0  0  0  0  0  0  0  0  0  0
   29.7944   33.3778   68.6309 H   0  0  0  0  0  0  0  0  0  0  0  0
   29.9950   34.6875   66.5586 H   0  0  0  0  0  0  0  0  0  0  0  0
   30.1112   38.9212   61.6051 H   0  0  0  0  0  0  0  0  0  0  0  0
   31.2125   38.9383   63.0066 H   0  0  0  0  0  0  0  0  0  0  0  0
   32.7890   37.4596   61.8391 H   0  0  0  0  0  0  0  0  0  0  0  0
   32.4314   38.8590   60.7978 H   0  0  0  0  0  0  0  0  0  0  0  0
   32.3373   36.7622   59.4924 H   0  0  0  0  0  0  0  0  0  0  0  0
   30.7246   37.5086   59.5909 H   0  0  0  0  0  0  0  0  0  0  0  0
   31.7436   35.2604   61.3871 H   0  0  0  0  0  0  0  0  0  0  0  0
   30.6248   35.0587   60.0167 H   0  0  0  0  0  0  0  0  0  0  0  0
   29.4491   35.2071   62.2410 H   0  0  0  0  0  0  0  0  0  0  0  0
   28.9641   36.4939   61.1071 H   0  0  0  0  0  0  0  0  0  0  0  0
  1  2  2  0  0  0  0
  2  3  1  0  0  0  0
  2 16  1  0  0  0  0
  3  8  2  0  0  0  0
  3  4  1  0  0  0  0
  4  5  2  0  0  0  0
  4 22  1  0  0  0  0
  5  6  1  0  0  0  0
  5 23  1  0  0  0  0
  6  7  2  0  0  0  0
  6 24  1  0  0  0  0
  7  8  1  0  0  0  0
  7 25  1  0  0  0  0
  8  9  1  0  0  0  0
  9 10  1  0  0  0  0
  9 26  1  0  0  0  0
 10 15  2  0  0  0  0
 10 11  1  0  0  0  0
 11 12  2  0  0  0  0
 11 27  1  0  0  0  0
 12 13  1  0  0  0  0
 12 28  1  0  0  0  0
 13 14  2  0  0  0  0
 14 15  1  0  0  0  0
 14 29  1  0  0  0  0
 15 30  1  0  0  0  0
 16 21  1  0  0  0  0
 16 17  1  0  0  0  0
 17 18  1  0  0  0  0
 17 31  1  0  0  0  0
 17 32  1  0  0  0  0
 18 19  1  0  0  0  0
 18 33  1  0  0  0  0
 18 34  1  0  0  0  0
 19 20  1  0  0  0  0
 19 35  1  0  0  0  0
 19 36  1  0  0  0  0
 20 21  1  0  0  0  0
 20 37  1  0  0  0  0
 20 38  1  0  0  0  0
 21 39  1  0  0  0  0
 21 40  1  0  0  0  0
M  END
$$$$
