ZINC000000029519      none
 OpenBabel11202420163D

 32 33  0  0  0  0  0  0  0  0999 V2000
   29.3075   36.8274   65.4118 C   0  0  0  0  0  0  0  0  0  0  0  0
   29.8891   35.7424   64.0793 S   0  0  0  0  0  0  0  0  0  0  0  0
   31.0245   34.9993   64.5012 O   0  0  0  0  0  0  0  0  0  0  0  0
   28.7916   35.1042   63.4410 O   0  0  0  0  0  0  0  0  0  0  0  0
   30.4826   36.7786   62.9320 N   0  0  0  0  0  0  0  0  0  0  0  0
   31.8909   37.2021   62.9535 C   0  0  0  0  0  0  0  0  0  0  0  0
   32.4873   36.9629   61.5572 C   0  0  0  0  0  0  0  0  0  0  0  0
   31.6526   37.6346   60.5522 N   0  0  0  0  0  0  0  0  0  0  0  0
   32.2492   37.5828   59.2904 C   0  0  0  0  0  0  0  0  0  0  0  0
   32.5711   38.7585   58.6237 C   0  0  0  0  0  0  0  0  0  0  0  0
   33.1614   38.7044   57.3766 C   0  0  0  0  0  0  0  0  0  0  0  0
   33.4320   37.4817   56.7901 C   0  0  0  0  0  0  0  0  0  0  0  0
   33.1129   36.3084   57.4508 C   0  0  0  0  0  0  0  0  0  0  0  0
   33.4551   34.7757   56.7109 Cl  0  0  0  0  0  0  0  0  0  0  0  0
   32.5271   36.3560   58.7021 C   0  0  0  0  0  0  0  0  0  0  0  0
   30.2985   37.0661   60.5181 C   0  0  0  0  0  0  0  0  0  0  0  0
   29.6138   37.3046   61.8681 C   0  0  0  0  0  0  0  0  0  0  0  0
   28.5354   37.4937   65.0269 H   0  0  0  0  0  0  0  0  0  0  0  0
   30.1419   37.4182   65.7896 H   0  0  0  0  0  0  0  0  0  0  0  0
   28.8955   36.2222   66.2195 H   0  0  0  0  0  0  0  0  0  0  0  0
   31.9510   38.2612   63.2042 H   0  0  0  0  0  0  0  0  0  0  0  0
   32.4382   36.6164   63.6921 H   0  0  0  0  0  0  0  0  0  0  0  0
   32.5169   35.8934   61.3495 H   0  0  0  0  0  0  0  0  0  0  0  0
   33.4984   37.3687   61.5203 H   0  0  0  0  0  0  0  0  0  0  0  0
   32.3603   39.7140   59.0808 H   0  0  0  0  0  0  0  0  0  0  0  0
   33.4117   39.6184   56.8583 H   0  0  0  0  0  0  0  0  0  0  0  0
   33.8930   37.4424   55.8142 H   0  0  0  0  0  0  0  0  0  0  0  0
   32.2822   35.4402   59.2196 H   0  0  0  0  0  0  0  0  0  0  0  0
   30.3585   35.9951   60.3249 H   0  0  0  0  0  0  0  0  0  0  0  0
   29.7218   37.5465   59.7278 H   0  0  0  0  0  0  0  0  0  0  0  0
   28.6549   36.7869   61.8889 H   0  0  0  0  0  0  0  0  0  0  0  0
   29.4565   38.3727   62.0186 H   0  0  0  0  0  0  0  0  0  0  0  0
  1  2  1  0  0  0  0
  1 18  1  0  0  0  0
  1 19  1  0  0  0  0
  1 20  1  0  0  0  0
  2  3  2  0  0  0  0
  2  4  2  0  0  0  0
  2  5  1  0  0  0  0
  5 17  1  0  0  0  0
  5  6  1  0  0  0  0
  6  7  1  0  0  0  0
  6 21  1  0  0  0  0
  6 22  1  0  0  0  0
  7  8  1  0  0  0  0
  7 23  1  0  0  0  0
  7 24  1  0  0  0  0
  8  9  1  0  0  0  0
  8 16  1  0  0  0  0
  9 15  2  0  0  0  0
  9 10  1  0  0  0  0
 10 11  2  0  0  0  0
 10 25  1  0  0  0  0
 11 12  1  0  0  0  0
 11 26  1  0  0  0  0
 12 13  2  0  0  0  0
 12 27  1  0  0  0  0
 13 14  1  0  0  0  0
 13 15  1  0  0  0  0
 15 28  1  0  0  0  0
 16 17  1  0  0  0  0
 16 29  1  0  0  0  0
 16 30  1  0  0  0  0
 17 31  1  0  0  0  0
 17 32  1  0  0  0  0
M  END
$$$$
