ZINC000000023436      none
 OpenBabel11202420153D

 43 45  0  0  0  0  0  0  0  0999 V2000
   32.1959   33.4629   57.4282 C   0  0  0  0  0  0  0  0  0  0  0  0
   32.3923   34.9359   57.6785 C   0  0  0  0  0  0  0  0  0  0  0  0
   33.2338   35.6695   56.8628 C   0  0  0  0  0  0  0  0  0  0  0  0
   33.4113   37.0212   57.0903 C   0  0  0  0  0  0  0  0  0  0  0  0
   32.7538   37.6381   58.1386 C   0  0  0  0  0  0  0  0  0  0  0  0
   32.9507   39.1110   58.3892 C   0  0  0  0  0  0  0  0  0  0  0  0
   31.9115   36.9050   58.9531 C   0  0  0  0  0  0  0  0  0  0  0  0
   31.1903   37.5785   60.0920 C   0  0  0  0  0  0  0  0  0  0  0  0
   30.9694   36.5856   61.2039 C   0  0  0  0  0  0  0  0  0  0  0  0
   31.9549   35.7905   61.5830 N   0  0  0  0  0  0  0  0  0  0  0  0
   31.7635   34.9123   62.5647 C   0  0  0  0  0  0  0  0  0  0  0  0
   32.7931   34.0829   62.9600 N   0  0  0  0  0  0  0  0  0  0  0  0
   30.5797   34.8357   63.1638 N   0  0  0  0  0  0  0  0  0  0  0  0
   29.5921   35.6363   62.7798 C   0  0  0  0  0  0  0  0  0  0  0  0
   28.3595   35.5602   63.3997 N   0  0  0  0  0  0  0  0  0  0  0  0
   28.1521   34.6429   64.4285 C   0  0  0  0  0  0  0  0  0  0  0  0
   27.1686   33.6669   64.3004 C   0  0  0  0  0  0  0  0  0  0  0  0
   26.9648   32.7558   65.3122 C   0  0  0  0  0  0  0  0  0  0  0  0
   27.7397   32.8190   66.4740 C   0  0  0  0  0  0  0  0  0  0  0  0
   27.5262   31.8769   67.5311 C   0  0  0  0  0  0  0  0  0  0  0  0
   27.3570   31.1295   68.3697 N   0  0  0  0  0  0  0  0  0  0  0  0
   28.7230   33.8044   66.6016 C   0  0  0  0  0  0  0  0  0  0  0  0
   28.9252   34.7087   65.5835 C   0  0  0  0  0  0  0  0  0  0  0  0
   29.7928   36.5159   61.8009 N   0  0  0  0  0  0  0  0  0  0  0  0
   31.7309   35.5537   58.7232 C   0  0  0  0  0  0  0  0  0  0  0  0
   31.3599   33.3190   56.7437 H   0  0  0  0  0  0  0  0  0  0  0  0
   33.1015   33.0451   56.9886 H   0  0  0  0  0  0  0  0  0  0  0  0
   31.9840   32.9592   58.3714 H   0  0  0  0  0  0  0  0  0  0  0  0
   33.7503   35.1869   56.0464 H   0  0  0  0  0  0  0  0  0  0  0  0
   34.0660   37.5949   56.4511 H   0  0  0  0  0  0  0  0  0  0  0  0
   33.7863   39.2544   59.0741 H   0  0  0  0  0  0  0  0  0  0  0  0
   32.0449   39.5291   58.8283 H   0  0  0  0  0  0  0  0  0  0  0  0
   33.1632   39.6147   57.4462 H   0  0  0  0  0  0  0  0  0  0  0  0
   31.7907   38.4099   60.4612 H   0  0  0  0  0  0  0  0  0  0  0  0
   30.2280   37.9523   59.7423 H   0  0  0  0  0  0  0  0  0  0  0  0
   33.6569   34.1396   62.5225 H   0  0  0  0  0  0  0  0  0  0  0  0
   32.6530   33.4431   63.6756 H   0  0  0  0  0  0  0  0  0  0  0  0
   27.6386   36.1453   63.1190 H   0  0  0  0  0  0  0  0  0  0  0  0
   26.5671   33.6217   63.4045 H   0  0  0  0  0  0  0  0  0  0  0  0
   26.2040   31.9960   65.2104 H   0  0  0  0  0  0  0  0  0  0  0  0
   29.3232   33.8564   67.4980 H   0  0  0  0  0  0  0  0  0  0  0  0
   29.6844   35.4705   65.6816 H   0  0  0  0  0  0  0  0  0  0  0  0
   31.0733   34.9808   59.3600 H   0  0  0  0  0  0  0  0  0  0  0  0
  1  2  1  0  0  0  0
  1 26  1  0  0  0  0
  1 27  1  0  0  0  0
  1 28  1  0  0  0  0
  2 25  2  0  0  0  0
  2  3  1  0  0  0  0
  3  4  2  0  0  0  0
  3 29  1  0  0  0  0
  4  5  1  0  0  0  0
  4 30  1  0  0  0  0
  5  6  1  0  0  0  0
  5  7  2  0  0  0  0
  6 31  1  0  0  0  0
  6 32  1  0  0  0  0
  6 33  1  0  0  0  0
  7  8  1  0  0  0  0
  7 25  1  0  0  0  0
  8  9  1  0  0  0  0
  8 34  1  0  0  0  0
  8 35  1  0  0  0  0
  9 24  2  0  0  0  0
  9 10  1  0  0  0  0
 10 11  2  0  0  0  0
 11 12  1  0  0  0  0
 11 13  1  0  0  0  0
 12 36  1  0  0  0  0
 12 37  1  0  0  0  0
 13 14  2  0  0  0  0
 14 15  1  0  0  0  0
 14 24  1  0  0  0  0
 15 16  1  0  0  0  0
 15 38  1  0  0  0  0
 16 23  2  0  0  0  0
 16 17  1  0  0  0  0
 17 18  2  0  0  0  0
 17 39  1  0  0  0  0
 18 19  1  0  0  0  0
 18 40  1  0  0  0  0
 19 20  1  0  0  0  0
 19 22  2  0  0  0  0
 20 21  3  0  0  0  0
 22 23  1  0  0  0  0
 22 41  1  0  0  0  0
 23 42  1  0  0  0  0
 25 43  1  0  0  0  0
M  END
$$$$
