ZINC000000028233      none
 OpenBabel11202420163D

 20 20  0  0  0  0  0  0  0  0999 V2000
   32.4543   37.4123   64.4850 C   0  0  0  0  0  0  0  0  0  0  0  0
   32.2638   37.0649   63.0311 C   0  0  0  0  0  0  0  0  0  0  0  0
   32.7855   36.0768   62.5728 O   0  0  0  0  0  0  0  0  0  0  0  0
   31.4223   37.9506   62.1488 C   0  0  0  0  0  0  0  0  0  0  0  0
   31.9347   37.8821   60.7331 C   0  0  0  0  0  0  0  0  0  0  0  0
   31.9566   36.8205   60.1470 O   0  0  0  0  0  0  0  0  0  0  0  0
   32.3685   39.0004   60.1186 N   0  0  0  0  0  0  0  0  0  0  0  0
   32.8356   38.9381   58.8109 C   0  0  0  0  0  0  0  0  0  0  0  0
   33.2690   39.9512   58.1282 N   0  0  0  0  0  0  0  0  0  0  0  0
   33.6806   39.7103   56.8975 C   0  0  0  0  0  0  0  0  0  0  0  0
   33.5806   38.4347   56.5187 C   0  0  0  0  0  0  0  0  0  0  0  0
   32.9153   37.5154   57.8662 S   0  0  0  0  0  0  0  0  0  0  0  0
   31.6673   36.9445   65.0764 H   0  0  0  0  0  0  0  0  0  0  0  0
   33.4257   37.0494   64.8210 H   0  0  0  0  0  0  0  0  0  0  0  0
   32.4078   38.4942   64.6092 H   0  0  0  0  0  0  0  0  0  0  0  0
   31.4788   38.9787   62.5062 H   0  0  0  0  0  0  0  0  0  0  0  0
   30.3864   37.6127   62.1770 H   0  0  0  0  0  0  0  0  0  0  0  0
   32.3508   39.8494   60.5874 H   0  0  0  0  0  0  0  0  0  0  0  0
   34.0631   40.4839   56.2480 H   0  0  0  0  0  0  0  0  0  0  0  0
   33.8590   38.0357   55.5545 H   0  0  0  0  0  0  0  0  0  0  0  0
  1  2  1  0  0  0  0
  1 13  1  0  0  0  0
  1 14  1  0  0  0  0
  1 15  1  0  0  0  0
  2  3  2  0  0  0  0
  2  4  1  0  0  0  0
  4  5  1  0  0  0  0
  4 16  1  0  0  0  0
  4 17  1  0  0  0  0
  5  6  2  0  0  0  0
  5  7  1  0  0  0  0
  7  8  1  0  0  0  0
  7 18  1  0  0  0  0
  8 12  1  0  0  0  0
  8  9  2  0  0  0  0
  9 10  1  0  0  0  0
 10 11  2  0  0  0  0
 10 19  1  0  0  0  0
 11 12  1  0  0  0  0
 11 20  1  0  0  0  0
M  END
$$$$
