ZINC000000002029      none
 OpenBabel11202420153D

 19 19  0  0  0  0  0  0  0  0999 V2000
   34.1891   35.5045   54.2812 C   0  0  0  0  0  0  0  0  0  0  0  0
   33.3815   36.6701   54.7917 C   0  0  0  0  0  0  0  0  0  0  0  0
   32.1862   36.6994   54.6171 O   0  0  0  0  0  0  0  0  0  0  0  0
   33.9901   37.6757   55.4404 O   0  0  0  0  0  0  0  0  0  0  0  0
   33.5914   37.9173   56.7171 C   0  0  0  0  0  0  0  0  0  0  0  0
   33.1192   36.8774   57.5059 C   0  0  0  0  0  0  0  0  0  0  0  0
   32.7142   37.1222   58.8038 C   0  0  0  0  0  0  0  0  0  0  0  0
   32.7830   38.4015   59.3219 C   0  0  0  0  0  0  0  0  0  0  0  0
   33.2493   39.4455   58.5357 C   0  0  0  0  0  0  0  0  0  0  0  0
   33.3123   40.7041   59.0442 O   0  0  0  0  0  0  0  0  0  0  0  0
   33.6564   39.2024   57.2328 C   0  0  0  0  0  0  0  0  0  0  0  0
   34.6885   35.0147   55.1171 H   0  0  0  0  0  0  0  0  0  0  0  0
   33.5279   34.7936   53.7857 H   0  0  0  0  0  0  0  0  0  0  0  0
   34.9349   35.8624   53.5715 H   0  0  0  0  0  0  0  0  0  0  0  0
   33.0680   35.8761   57.1044 H   0  0  0  0  0  0  0  0  0  0  0  0
   32.3470   36.3117   59.4159 H   0  0  0  0  0  0  0  0  0  0  0  0
   32.4696   38.5897   60.3381 H   0  0  0  0  0  0  0  0  0  0  0  0
   33.0114   40.7735   59.9606 H   0  0  0  0  0  0  0  0  0  0  0  0
   34.0232   40.0128   56.6205 H   0  0  0  0  0  0  0  0  0  0  0  0
  1  2  1  0  0  0  0
  1 12  1  0  0  0  0
  1 13  1  0  0  0  0
  1 14  1  0  0  0  0
  2  3  2  0  0  0  0
  2  4  1  0  0  0  0
  4  5  1  0  0  0  0
  5 11  2  0  0  0  0
  5  6  1  0  0  0  0
  6  7  2  0  0  0  0
  6 15  1  0  0  0  0
  7  8  1  0  0  0  0
  7 16  1  0  0  0  0
  8  9  2  0  0  0  0
  8 17  1  0  0  0  0
  9 10  1  0  0  0  0
  9 11  1  0  0  0  0
 10 18  1  0  0  0  0
 11 19  1  0  0  0  0
M  END
$$$$
