ZINC000000040736      none
 OpenBabel11202420153D

 34 34  0  0  0  0  0  0  0  0999 V2000
   34.8583   31.6921   55.3473 C   0  0  0  0  0  0  0  0  0  0  0  0
   33.6388   32.5989   55.5246 C   0  0  0  0  0  0  0  0  0  0  0  0
   34.0464   34.0349   55.3176 C   0  0  0  0  0  0  0  0  0  0  0  0
   35.1986   34.3063   55.0544 O   0  0  0  0  0  0  0  0  0  0  0  0
   33.1302   35.0176   55.4251 N   0  0  0  0  0  0  0  0  0  0  0  0
   33.5037   36.3336   55.2354 C   0  0  0  0  0  0  0  0  0  0  0  0
   34.1790   36.9564   53.7980 S   0  0  0  0  0  0  0  0  0  0  0  0
   34.2970   38.5697   54.4824 C   0  0  0  0  0  0  0  0  0  0  0  0
   34.8250   39.7402   53.7823 C   0  0  0  0  0  0  0  0  0  0  0  0
   34.8650   40.8183   54.3444 O   0  0  0  0  0  0  0  0  0  0  0  0
   35.2676   39.6242   52.5130 O   0  0  0  0  0  0  0  0  0  0  0  0
   35.7701   40.8083   51.8905 C   0  0  0  0  0  0  0  0  0  0  0  0
   33.8292   38.5718   55.7480 C   0  0  0  0  0  0  0  0  0  0  0  0
   33.7934   39.8071   56.6106 C   0  0  0  0  0  0  0  0  0  0  0  0
   33.3831   37.3305   56.1816 C   0  0  0  0  0  0  0  0  0  0  0  0
   32.8346   37.1001   57.5228 C   0  0  0  0  0  0  0  0  0  0  0  0
   32.2515   37.9954   58.1034 O   0  0  0  0  0  0  0  0  0  0  0  0
   32.9769   35.8954   58.1116 O   0  0  0  0  0  0  0  0  0  0  0  0
   32.4089   35.7391   59.4388 C   0  0  0  0  0  0  0  0  0  0  0  0
   34.5635   30.6534   55.4970 H   0  0  0  0  0  0  0  0  0  0  0  0
   35.2590   31.8147   54.3411 H   0  0  0  0  0  0  0  0  0  0  0  0
   35.6211   31.9621   56.0777 H   0  0  0  0  0  0  0  0  0  0  0  0
   33.2380   32.4763   56.5308 H   0  0  0  0  0  0  0  0  0  0  0  0
   32.8760   32.3289   54.7943 H   0  0  0  0  0  0  0  0  0  0  0  0
   32.2086   34.8006   55.6356 H   0  0  0  0  0  0  0  0  0  0  0  0
   34.9848   41.5636   51.8590 H   0  0  0  0  0  0  0  0  0  0  0  0
   36.6168   41.1881   52.4625 H   0  0  0  0  0  0  0  0  0  0  0  0
   36.0922   40.5765   50.8753 H   0  0  0  0  0  0  0  0  0  0  0  0
   32.8427   40.3213   56.4696 H   0  0  0  0  0  0  0  0  0  0  0  0
   33.9008   39.5225   57.6574 H   0  0  0  0  0  0  0  0  0  0  0  0
   34.6107   40.4708   56.3289 H   0  0  0  0  0  0  0  0  0  0  0  0
   32.5933   34.7259   59.7958 H   0  0  0  0  0  0  0  0  0  0  0  0
   32.8722   36.4540   60.1187 H   0  0  0  0  0  0  0  0  0  0  0  0
   31.3348   35.9201   59.3979 H   0  0  0  0  0  0  0  0  0  0  0  0
  1  2  1  0  0  0  0
  1 20  1  0  0  0  0
  1 21  1  0  0  0  0
  1 22  1  0  0  0  0
  2  3  1  0  0  0  0
  2 23  1  0  0  0  0
  2 24  1  0  0  0  0
  3  4  2  0  0  0  0
  3  5  1  0  0  0  0
  5  6  1  0  0  0  0
  5 25  1  0  0  0  0
  6 15  2  0  0  0  0
  6  7  1  0  0  0  0
  7  8  1  0  0  0  0
  8  9  1  0  0  0  0
  8 13  2  0  0  0  0
  9 10  2  0  0  0  0
  9 11  1  0  0  0  0
 11 12  1  0  0  0  0
 12 26  1  0  0  0  0
 12 27  1  0  0  0  0
 12 28  1  0  0  0  0
 13 14  1  0  0  0  0
 13 15  1  0  0  0  0
 14 29  1  0  0  0  0
 14 30  1  0  0  0  0
 14 31  1  0  0  0  0
 15 16  1  0  0  0  0
 16 17  2  0  0  0  0
 16 18  1  0  0  0  0
 18 19  1  0  0  0  0
 19 32  1  0  0  0  0
 19 33  1  0  0  0  0
 19 34  1  0  0  0  0
M  END
$$$$
