ZINC000000029816      none
 OpenBabel11202420163D

 33 34  0  0  0  0  0  0  0  0999 V2000
   29.4913   36.6391   60.1450 C   0  0  0  0  0  0  0  0  0  0  0  0
   30.9221   36.9486   60.2021 N   0  0  0  0  0  0  0  0  0  0  0  0
   31.7059   36.8431   59.0509 C   0  0  0  0  0  0  0  0  0  0  0  0
   31.8589   37.9383   58.2101 C   0  0  0  0  0  0  0  0  0  0  0  0
   32.6350   37.8306   57.0728 C   0  0  0  0  0  0  0  0  0  0  0  0
   33.2596   36.6344   56.7708 C   0  0  0  0  0  0  0  0  0  0  0  0
   33.1094   35.5422   57.6056 C   0  0  0  0  0  0  0  0  0  0  0  0
   32.3347   35.6430   58.7444 C   0  0  0  0  0  0  0  0  0  0  0  0
   31.6101   37.4236   61.6315 S   0  0  0  0  0  0  0  0  0  0  0  0
   32.9942   37.5417   61.3321 O   0  0  0  0  0  0  0  0  0  0  0  0
   30.8474   38.5548   62.0288 O   0  0  0  0  0  0  0  0  0  0  0  0
   31.3191   36.0322   62.7583 C   0  0  0  0  0  0  0  0  0  0  0  0
   31.4449   36.5052   64.1837 C   0  0  0  0  0  0  0  0  0  0  0  0
   32.6701   36.4586   64.8218 C   0  0  0  0  0  0  0  0  0  0  0  0
   32.7865   36.8969   66.1277 C   0  0  0  0  0  0  0  0  0  0  0  0
   31.6753   37.3723   66.7986 C   0  0  0  0  0  0  0  0  0  0  0  0
   30.4489   37.4141   66.1623 C   0  0  0  0  0  0  0  0  0  0  0  0
   30.3337   36.9805   64.8546 C   0  0  0  0  0  0  0  0  0  0  0  0
   29.3396   35.5812   60.3591 H   0  0  0  0  0  0  0  0  0  0  0  0
   28.9600   37.2392   60.8838 H   0  0  0  0  0  0  0  0  0  0  0  0
   29.1097   36.8668   59.1496 H   0  0  0  0  0  0  0  0  0  0  0  0
   31.3678   38.8714   58.4431 H   0  0  0  0  0  0  0  0  0  0  0  0
   32.7543   38.6816   56.4186 H   0  0  0  0  0  0  0  0  0  0  0  0
   33.8660   36.5529   55.8808 H   0  0  0  0  0  0  0  0  0  0  0  0
   33.5982   34.6093   57.3666 H   0  0  0  0  0  0  0  0  0  0  0  0
   32.2176   34.7895   59.3958 H   0  0  0  0  0  0  0  0  0  0  0  0
   30.3173   35.6351   62.5944 H   0  0  0  0  0  0  0  0  0  0  0  0
   32.0552   35.2509   62.5685 H   0  0  0  0  0  0  0  0  0  0  0  0
   33.5373   36.0829   64.2991 H   0  0  0  0  0  0  0  0  0  0  0  0
   33.7444   36.8639   66.6251 H   0  0  0  0  0  0  0  0  0  0  0  0
   31.7652   37.7108   67.8204 H   0  0  0  0  0  0  0  0  0  0  0  0
   29.5806   37.7852   66.6866 H   0  0  0  0  0  0  0  0  0  0  0  0
   29.3754   37.0128   64.3575 H   0  0  0  0  0  0  0  0  0  0  0  0
  1  2  1  0  0  0  0
  1 19  1  0  0  0  0
  1 20  1  0  0  0  0
  1 21  1  0  0  0  0
  2  3  1  0  0  0  0
  2  9  1  0  0  0  0
  3  8  2  0  0  0  0
  3  4  1  0  0  0  0
  4  5  2  0  0  0  0
  4 22  1  0  0  0  0
  5  6  1  0  0  0  0
  5 23  1  0  0  0  0
  6  7  2  0  0  0  0
  6 24  1  0  0  0  0
  7  8  1  0  0  0  0
  7 25  1  0  0  0  0
  8 26  1  0  0  0  0
  9 10  2  0  0  0  0
  9 11  2  0  0  0  0
  9 12  1  0  0  0  0
 12 13  1  0  0  0  0
 12 27  1  0  0  0  0
 12 28  1  0  0  0  0
 13 18  2  0  0  0  0
 13 14  1  0  0  0  0
 14 15  2  0  0  0  0
 14 29  1  0  0  0  0
 15 16  1  0  0  0  0
 15 30  1  0  0  0  0
 16 17  2  0  0  0  0
 16 31  1  0  0  0  0
 17 18  1  0  0  0  0
 17 32  1  0  0  0  0
 18 33  1  0  0  0  0
M  END
$$$$
