ZINC000000005235      none
 OpenBabel11202420153D

 35 37  0  0  1  0  0  0  0  0999 V2000
   28.5884   36.6446   61.4810 C   0  0  0  0  0  0  0  0  0  0  0  0
   29.8869   36.7934   61.5707 C   0  0  0  0  0  0  0  0  0  0  0  0
   30.7291   36.5954   62.8137 C   0  0  1  0  0  0  0  0  0  0  0  0
   30.4058   37.2822   63.5959 H   0  0  0  0  0  0  0  0  0  0  0  0
   30.6074   35.1510   63.3033 C   0  0  0  0  0  0  0  0  0  0  0  0
   31.7148   34.8407   64.1515 O   0  0  0  0  0  0  0  0  0  0  0  0
   32.1894   36.8965   62.4170 C   0  0  2  0  0  0  0  0  0  0  0  0
   32.7146   35.9757   62.1626 H   0  0  0  0  0  0  0  0  0  0  0  0
   32.8640   37.5861   63.4713 O   0  0  0  0  0  0  0  0  0  0  0  0
   32.0523   37.8074   61.1706 C   0  0  0  0  0  0  0  0  0  0  0  0
   30.8261   37.1966   60.4478 C   0  0  1  0  0  0  0  0  0  0  0  0
   30.3540   37.9398   59.8050 H   0  0  0  0  0  0  0  0  0  0  0  0
   31.2245   36.0225   59.6675 N   0  0  0  0  0  0  0  0  0  0  0  0
   30.8291   34.7349   59.8877 C   0  0  0  0  0  0  0  0  0  0  0  0
   31.3711   33.9497   59.0033 N   0  0  0  0  0  0  0  0  0  0  0  0
   32.1518   34.6819   58.1717 C   0  0  0  0  0  0  0  0  0  0  0  0
   32.9663   34.3717   57.0577 C   0  0  0  0  0  0  0  0  0  0  0  0
   33.0706   33.2239   56.6602 O   0  0  0  0  0  0  0  0  0  0  0  0
   33.6268   35.3793   56.4452 N   0  0  0  0  0  0  0  0  0  0  0  0
   34.1915   35.1909   55.6794 H   0  0  0  0  0  0  0  0  0  0  0  0
   33.5029   36.6590   56.8980 C   0  0  0  0  0  0  0  0  0  0  0  0
   34.1854   37.6618   56.2563 N   0  0  0  0  0  0  0  0  0  0  0  0
   32.7490   36.9602   57.9316 N   0  0  0  0  0  0  0  0  0  0  0  0
   32.0659   36.0153   58.5882 C   0  0  0  0  0  0  0  0  0  0  0  0
   28.0170   36.3531   62.3498 H   0  0  0  0  0  0  0  0  0  0  0  0
   28.0895   36.8137   60.5381 H   0  0  0  0  0  0  0  0  0  0  0  0
   30.6050   34.4762   62.4474 H   0  0  0  0  0  0  0  0  0  0  0  0
   29.6784   35.0336   63.8612 H   0  0  0  0  0  0  0  0  0  0  0  0
   31.7795   35.4032   64.9354 H   0  0  0  0  0  0  0  0  0  0  0  0
   32.9003   37.0940   64.3029 H   0  0  0  0  0  0  0  0  0  0  0  0
   32.9424   37.7443   60.5448 H   0  0  0  0  0  0  0  0  0  0  0  0
   31.8567   38.8397   61.4608 H   0  0  0  0  0  0  0  0  0  0  0  0
   30.1637   34.4160   60.6763 H   0  0  0  0  0  0  0  0  0  0  0  0
   34.1075   38.5774   56.5670 H   0  0  0  0  0  0  0  0  0  0  0  0
   34.7456   37.4550   55.4919 H   0  0  0  0  0  0  0  0  0  0  0  0
  1  2  2  0  0  0  0
  1 25  1  0  0  0  0
  1 26  1  0  0  0  0
  2 11  1  0  0  0  0
  2  3  1  0  0  0  0
  3  4  1  1  0  0  0
  3  5  1  0  0  0  0
  3  7  1  0  0  0  0
  5  6  1  0  0  0  0
  5 27  1  0  0  0  0
  5 28  1  0  0  0  0
  6 29  1  0  0  0  0
  7  8  1  6  0  0  0
  7  9  1  0  0  0  0
  7 10  1  0  0  0  0
  9 30  1  0  0  0  0
 10 11  1  0  0  0  0
 10 31  1  0  0  0  0
 10 32  1  0  0  0  0
 11 12  1  6  0  0  0
 11 13  1  0  0  0  0
 13 24  1  0  0  0  0
 13 14  1  0  0  0  0
 14 15  2  0  0  0  0
 14 33  1  0  0  0  0
 15 16  1  0  0  0  0
 16 24  2  0  0  0  0
 16 17  1  0  0  0  0
 17 18  2  0  0  0  0
 17 19  1  0  0  0  0
 19 20  1  0  0  0  0
 19 21  1  0  0  0  0
 21 22  1  0  0  0  0
 21 23  2  0  0  0  0
 22 34  1  0  0  0  0
 22 35  1  0  0  0  0
 23 24  1  0  0  0  0
M  END
$$$$
