ZINC000000030021      none
 OpenBabel11202420163D

 28 29  0  0  0  0  0  0  0  0999 V2000
   34.9866   31.1441   55.3559 C   0  0  0  0  0  0  0  0  0  0  0  0
   34.6718   31.5163   54.0125 O   0  0  0  0  0  0  0  0  0  0  0  0
   34.1104   32.7402   53.8268 C   0  0  0  0  0  0  0  0  0  0  0  0
   33.7848   33.1672   52.5464 C   0  0  0  0  0  0  0  0  0  0  0  0
   33.2090   34.4090   52.3519 C   0  0  0  0  0  0  0  0  0  0  0  0
   32.9637   35.2368   53.4283 C   0  0  0  0  0  0  0  0  0  0  0  0
   33.2925   34.8184   54.7188 C   0  0  0  0  0  0  0  0  0  0  0  0
   33.0316   35.7025   55.8742 C   0  0  0  0  0  0  0  0  0  0  0  0
   33.0076   36.9083   55.7234 O   0  0  0  0  0  0  0  0  0  0  0  0
   32.8205   35.1716   57.0948 N   0  0  0  0  0  0  0  0  0  0  0  0
   32.5767   35.9978   58.1744 C   0  0  0  0  0  0  0  0  0  0  0  0
   32.3583   35.5971   59.3736 N   0  0  0  0  0  0  0  0  0  0  0  0
   32.1198   36.5623   60.4235 C   0  0  0  0  0  0  0  0  0  0  0  0
   32.1612   37.9987   59.8786 C   0  0  0  0  0  0  0  0  0  0  0  0
   32.5120   37.7630   58.1062 S   0  0  0  0  0  0  0  0  0  0  0  0
   33.8687   33.5625   54.9140 C   0  0  0  0  0  0  0  0  0  0  0  0
   35.4277   30.1473   55.3628 H   0  0  0  0  0  0  0  0  0  0  0  0
   35.6958   31.8582   55.7740 H   0  0  0  0  0  0  0  0  0  0  0  0
   34.0762   31.1428   55.9552 H   0  0  0  0  0  0  0  0  0  0  0  0
   33.9785   32.5254   51.6996 H   0  0  0  0  0  0  0  0  0  0  0  0
   32.9544   34.7339   51.3537 H   0  0  0  0  0  0  0  0  0  0  0  0
   32.5179   36.2081   53.2724 H   0  0  0  0  0  0  0  0  0  0  0  0
   32.8397   34.2093   57.2150 H   0  0  0  0  0  0  0  0  0  0  0  0
   32.8809   36.4511   61.1957 H   0  0  0  0  0  0  0  0  0  0  0  0
   31.1387   36.3737   60.8595 H   0  0  0  0  0  0  0  0  0  0  0  0
   32.9584   38.5684   60.3560 H   0  0  0  0  0  0  0  0  0  0  0  0
   31.1986   38.4908   60.0180 H   0  0  0  0  0  0  0  0  0  0  0  0
   34.1250   33.2330   55.9101 H   0  0  0  0  0  0  0  0  0  0  0  0
  1  2  1  0  0  0  0
  1 17  1  0  0  0  0
  1 18  1  0  0  0  0
  1 19  1  0  0  0  0
  2  3  1  0  0  0  0
  3 16  2  0  0  0  0
  3  4  1  0  0  0  0
  4  5  2  0  0  0  0
  4 20  1  0  0  0  0
  5  6  1  0  0  0  0
  5 21  1  0  0  0  0
  6  7  2  0  0  0  0
  6 22  1  0  0  0  0
  7  8  1  0  0  0  0
  7 16  1  0  0  0  0
  8  9  2  0  0  0  0
  8 10  1  0  0  0  0
 10 11  1  0  0  0  0
 10 23  1  0  0  0  0
 11 15  1  0  0  0  0
 11 12  2  0  0  0  0
 12 13  1  0  0  0  0
 13 14  1  0  0  0  0
 13 24  1  0  0  0  0
 13 25  1  0  0  0  0
 14 15  1  0  0  0  0
 14 26  1  0  0  0  0
 14 27  1  0  0  0  0
 16 28  1  0  0  0  0
M  END
$$$$
