ZINC000000003560      none
 OpenBabel11202420153D

 35 37  0  0  1  0  0  0  0  0999 V2000
   33.1336   37.1689   62.7268 O   0  0  0  0  0  0  0  0  0  0  0  0
   32.0191   37.4571   63.1159 C   0  0  0  0  0  0  0  0  0  0  0  0
   30.9785   37.4300   62.2597 N   0  0  0  0  0  0  0  0  0  0  0  0
   31.1912   37.0533   60.8600 C   0  0  2  0  0  0  0  0  0  0  0  0
   30.2436   37.0875   60.3227 H   0  0  0  0  0  0  0  0  0  0  0  0
   31.7739   35.6369   60.7895 C   0  0  0  0  0  0  0  0  0  0  0  0
   31.7594   35.1821   59.3314 C   0  0  0  0  0  0  0  0  0  0  0  0
   32.4023   36.2184   58.4473 C   0  0  0  0  0  0  0  0  0  0  0  0
   32.8128   35.8230   57.1804 C   0  0  0  0  0  0  0  0  0  0  0  0
   33.3972   36.7278   56.3188 C   0  0  0  0  0  0  0  0  0  0  0  0
   33.5856   38.0368   56.7222 C   0  0  0  0  0  0  0  0  0  0  0  0
   33.1806   38.4308   57.9804 C   0  0  0  0  0  0  0  0  0  0  0  0
   32.5896   37.5218   58.8488 C   0  0  0  0  0  0  0  0  0  0  0  0
   32.1845   38.0161   60.2128 C   0  0  0  0  0  0  0  0  0  0  0  0
   31.8040   37.8383   64.5313 C   0  0  0  0  0  0  0  0  0  0  0  0
   30.7483   38.6787   64.8965 C   0  0  0  0  0  0  0  0  0  0  0  0
   30.5820   39.0053   66.2285 C   0  0  0  0  0  0  0  0  0  0  0  0
   31.4075   38.5437   67.1467 N   0  0  0  0  0  0  0  0  0  0  0  0
   32.4179   37.7529   66.8447 C   0  0  0  0  0  0  0  0  0  0  0  0
   32.6548   37.3720   65.5381 C   0  0  0  0  0  0  0  0  0  0  0  0
   30.0888   37.6601   62.5702 H   0  0  0  0  0  0  0  0  0  0  0  0
   31.1674   34.9599   61.3912 H   0  0  0  0  0  0  0  0  0  0  0  0
   32.7982   35.6417   61.1623 H   0  0  0  0  0  0  0  0  0  0  0  0
   30.7284   35.0278   59.0133 H   0  0  0  0  0  0  0  0  0  0  0  0
   32.3073   34.2440   59.2426 H   0  0  0  0  0  0  0  0  0  0  0  0
   32.6692   34.7999   56.8660 H   0  0  0  0  0  0  0  0  0  0  0  0
   33.7102   36.4139   55.3340 H   0  0  0  0  0  0  0  0  0  0  0  0
   34.0442   38.7495   56.0527 H   0  0  0  0  0  0  0  0  0  0  0  0
   33.3245   39.4545   58.2933 H   0  0  0  0  0  0  0  0  0  0  0  0
   33.0699   38.0968   60.8434 H   0  0  0  0  0  0  0  0  0  0  0  0
   31.7220   38.9984   60.1163 H   0  0  0  0  0  0  0  0  0  0  0  0
   30.0707   39.0644   64.1489 H   0  0  0  0  0  0  0  0  0  0  0  0
   29.7671   39.6510   66.5211 H   0  0  0  0  0  0  0  0  0  0  0  0
   33.0695   37.3979   67.6296 H   0  0  0  0  0  0  0  0  0  0  0  0
   33.4850   36.7244   65.2978 H   0  0  0  0  0  0  0  0  0  0  0  0
  1  2  2  0  0  0  0
  2  3  1  0  0  0  0
  2 15  1  0  0  0  0
  3  4  1  0  0  0  0
  3 21  1  0  0  0  0
  4  5  1  6  0  0  0
  4 14  1  0  0  0  0
  4  6  1  0  0  0  0
  6  7  1  0  0  0  0
  6 22  1  0  0  0  0
  6 23  1  0  0  0  0
  7  8  1  0  0  0  0
  7 24  1  0  0  0  0
  7 25  1  0  0  0  0
  8 13  2  0  0  0  0
  8  9  1  0  0  0  0
  9 10  2  0  0  0  0
  9 26  1  0  0  0  0
 10 11  1  0  0  0  0
 10 27  1  0  0  0  0
 11 12  2  0  0  0  0
 11 28  1  0  0  0  0
 12 13  1  0  0  0  0
 12 29  1  0  0  0  0
 13 14  1  0  0  0  0
 14 30  1  0  0  0  0
 14 31  1  0  0  0  0
 15 20  2  0  0  0  0
 15 16  1  0  0  0  0
 16 17  2  0  0  0  0
 16 32  1  0  0  0  0
 17 18  1  0  0  0  0
 17 33  1  0  0  0  0
 18 19  2  0  0  0  0
 19 20  1  0  0  0  0
 19 34  1  0  0  0  0
 20 35  1  0  0  0  0
M  END
$$$$
