ZINC000000053197      none
 OpenBabel11202420153D

 26 29  0  0  0  0  0  0  0  0999 V2000
   34.3405   32.2201   53.4129 C   0  0  0  0  0  0  0  0  0  0  0  0
   33.3344   33.1652   53.3353 C   0  0  0  0  0  0  0  0  0  0  0  0
   32.9501   33.8614   54.4643 C   0  0  0  0  0  0  0  0  0  0  0  0
   33.5756   33.6112   55.6791 C   0  0  0  0  0  0  0  0  0  0  0  0
   33.1892   34.3138   56.8237 N   0  0  0  0  0  0  0  0  0  0  0  0
   33.2940   35.6881   56.8572 C   0  0  0  0  0  0  0  0  0  0  0  0
   33.7581   36.3280   55.8088 N   0  0  0  0  0  0  0  0  0  0  0  0
   33.8766   37.6821   55.8031 C   0  0  0  0  0  0  0  0  0  0  0  0
   34.3043   38.5244   54.8913 N   0  0  0  0  0  0  0  0  0  0  0  0
   34.2064   39.8314   55.4286 O   0  0  0  0  0  0  0  0  0  0  0  0
   33.6851   39.7205   56.7408 N   0  0  0  0  0  0  0  0  0  0  0  0
   33.4803   38.4583   56.9894 C   0  0  0  0  0  0  0  0  0  0  0  0
   32.9895   37.7842   58.0998 N   0  0  0  0  0  0  0  0  0  0  0  0
   32.5472   38.1634   59.3150 C   0  0  0  0  0  0  0  0  0  0  0  0
   32.2010   37.0777   59.9632 N   0  0  0  0  0  0  0  0  0  0  0  0
   32.4000   36.0407   59.2270 N   0  0  0  0  0  0  0  0  0  0  0  0
   32.8867   36.4156   58.0634 C   0  0  0  0  0  0  0  0  0  0  0  0
   34.5900   32.6649   55.7524 C   0  0  0  0  0  0  0  0  0  0  0  0
   34.9656   31.9683   54.6207 C   0  0  0  0  0  0  0  0  0  0  0  0
   34.6392   31.6768   52.5285 H   0  0  0  0  0  0  0  0  0  0  0  0
   32.8481   33.3591   52.3905 H   0  0  0  0  0  0  0  0  0  0  0  0
   32.1643   34.5999   54.4028 H   0  0  0  0  0  0  0  0  0  0  0  0
   32.8472   33.8345   57.5946 H   0  0  0  0  0  0  0  0  0  0  0  0
   32.4886   39.1757   59.6865 H   0  0  0  0  0  0  0  0  0  0  0  0
   35.0815   32.4711   56.6945 H   0  0  0  0  0  0  0  0  0  0  0  0
   35.7511   31.2294   54.6780 H   0  0  0  0  0  0  0  0  0  0  0  0
  1 19  2  0  0  0  0
  1  2  1  0  0  0  0
  1 20  1  0  0  0  0
  2  3  2  0  0  0  0
  2 21  1  0  0  0  0
  3  4  1  0  0  0  0
  3 22  1  0  0  0  0
  4  5  1  0  0  0  0
  4 18  2  0  0  0  0
  5  6  1  0  0  0  0
  5 23  1  0  0  0  0
  6 17  1  0  0  0  0
  6  7  2  0  0  0  0
  7  8  1  0  0  0  0
  8 12  1  0  0  0  0
  8  9  2  0  0  0  0
  9 10  1  0  0  0  0
 10 11  1  0  0  0  0
 11 12  2  0  0  0  0
 12 13  1  0  0  0  0
 13 17  1  0  0  0  0
 13 14  1  0  0  0  0
 14 15  2  0  0  0  0
 14 24  1  0  0  0  0
 15 16  1  0  0  0  0
 16 17  2  0  0  0  0
 18 19  1  0  0  0  0
 18 25  1  0  0  0  0
 19 26  1  0  0  0  0
M  END
$$$$
