ZINC000000028234      none
 OpenBabel11202420163D

 23 23  0  0  0  0  0  0  0  0999 V2000
   29.3455   36.6651   62.1856 C   0  0  0  0  0  0  0  0  0  0  0  0
   30.6458   36.7756   62.9393 C   0  0  0  0  0  0  0  0  0  0  0  0
   30.8860   36.0129   63.8444 O   0  0  0  0  0  0  0  0  0  0  0  0
   31.6467   37.8378   62.5636 C   0  0  0  0  0  0  0  0  0  0  0  0
   32.0716   37.6433   61.1309 C   0  0  0  0  0  0  0  0  0  0  0  0
   32.0838   36.5309   60.6477 O   0  0  0  0  0  0  0  0  0  0  0  0
   32.4382   38.7054   60.3866 N   0  0  0  0  0  0  0  0  0  0  0  0
   32.8257   38.5261   59.0595 C   0  0  0  0  0  0  0  0  0  0  0  0
   33.2026   39.6263   58.2974 C   0  0  0  0  0  0  0  0  0  0  0  0
   33.5851   39.4342   56.9817 C   0  0  0  0  0  0  0  0  0  0  0  0
   33.5774   38.1431   56.4713 C   0  0  0  0  0  0  0  0  0  0  0  0
   33.1914   37.0968   57.2854 C   0  0  0  0  0  0  0  0  0  0  0  0
   32.8368   37.3096   58.5382 N   0  0  0  0  0  0  0  0  0  0  0  0
   29.5511   36.4724   61.1328 H   0  0  0  0  0  0  0  0  0  0  0  0
   28.7560   35.8455   62.5966 H   0  0  0  0  0  0  0  0  0  0  0  0
   28.7890   37.5972   62.2826 H   0  0  0  0  0  0  0  0  0  0  0  0
   32.5179   37.7626   63.2143 H   0  0  0  0  0  0  0  0  0  0  0  0
   31.1919   38.8218   62.6773 H   0  0  0  0  0  0  0  0  0  0  0  0
   32.4285   39.5950   60.7731 H   0  0  0  0  0  0  0  0  0  0  0  0
   33.1966   40.6174   58.7265 H   0  0  0  0  0  0  0  0  0  0  0  0
   33.8825   40.2698   56.3655 H   0  0  0  0  0  0  0  0  0  0  0  0
   33.8707   37.9590   55.4484 H   0  0  0  0  0  0  0  0  0  0  0  0
   33.1839   36.0906   56.8929 H   0  0  0  0  0  0  0  0  0  0  0  0
  1  2  1  0  0  0  0
  1 14  1  0  0  0  0
  1 15  1  0  0  0  0
  1 16  1  0  0  0  0
  2  3  2  0  0  0  0
  2  4  1  0  0  0  0
  4  5  1  0  0  0  0
  4 17  1  0  0  0  0
  4 18  1  0  0  0  0
  5  6  2  0  0  0  0
  5  7  1  0  0  0  0
  7  8  1  0  0  0  0
  7 19  1  0  0  0  0
  8 13  2  0  0  0  0
  8  9  1  0  0  0  0
  9 10  2  0  0  0  0
  9 20  1  0  0  0  0
 10 11  1  0  0  0  0
 10 21  1  0  0  0  0
 11 12  2  0  0  0  0
 11 22  1  0  0  0  0
 12 13  1  0  0  0  0
 12 23  1  0  0  0  0
M  END
$$$$
