ZINC000000024727      none
 OpenBabel11202420153D

 20 21  0  0  0  0  0  0  0  0999 V2000
   31.4839   37.3557   63.2863 S   0  0  0  0  0  0  0  0  0  0  0  0
   31.8259   36.0677   62.2116 C   0  0  0  0  0  0  0  0  0  0  0  0
   32.4758   34.9289   62.5231 N   0  0  0  0  0  0  0  0  0  0  0  0
   32.8311   34.6957   63.3951 H   0  0  0  0  0  0  0  0  0  0  0  0
   32.5475   34.1492   61.3789 C   0  0  0  0  0  0  0  0  0  0  0  0
   31.9442   34.8092   60.3958 C   0  0  0  0  0  0  0  0  0  0  0  0
   31.4927   36.0163   60.9069 N   0  0  0  0  0  0  0  0  0  0  0  0
   30.7737   37.0519   60.1608 C   0  0  0  0  0  0  0  0  0  0  0  0
   31.7629   38.0203   59.5652 C   0  0  0  0  0  0  0  0  0  0  0  0
   32.3392   37.9113   58.3546 C   0  0  0  0  0  0  0  0  0  0  0  0
   33.1898   39.0306   58.2038 C   0  0  0  0  0  0  0  0  0  0  0  0
   33.0887   39.7521   59.3345 C   0  0  0  0  0  0  0  0  0  0  0  0
   32.2230   39.1354   60.1555 O   0  0  0  0  0  0  0  0  0  0  0  0
   33.0080   33.1754   61.3015 H   0  0  0  0  0  0  0  0  0  0  0  0
   31.8285   34.4669   59.3781 H   0  0  0  0  0  0  0  0  0  0  0  0
   30.1031   37.5856   60.8343 H   0  0  0  0  0  0  0  0  0  0  0  0
   30.1937   36.5883   59.3627 H   0  0  0  0  0  0  0  0  0  0  0  0
   32.1807   37.1217   57.6351 H   0  0  0  0  0  0  0  0  0  0  0  0
   33.8059   39.2598   57.3469 H   0  0  0  0  0  0  0  0  0  0  0  0
   33.6143   40.6716   59.5460 H   0  0  0  0  0  0  0  0  0  0  0  0
  1  2  2  0  0  0  0
  2  7  1  0  0  0  0
  2  3  1  0  0  0  0
  3  4  1  0  0  0  0
  3  5  1  0  0  0  0
  5  6  2  0  0  0  0
  5 14  1  0  0  0  0
  6  7  1  0  0  0  0
  6 15  1  0  0  0  0
  7  8  1  0  0  0  0
  8  9  1  0  0  0  0
  8 16  1  0  0  0  0
  8 17  1  0  0  0  0
  9 13  1  0  0  0  0
  9 10  2  0  0  0  0
 10 11  1  0  0  0  0
 10 18  1  0  0  0  0
 11 12  2  0  0  0  0
 11 19  1  0  0  0  0
 12 13  1  0  0  0  0
 12 20  1  0  0  0  0
M  END
$$$$
