ZINC000000016119      none
 OpenBabel11202420153D

 26 28  0  0  1  0  0  0  0  0999 V2000
   35.1536   40.1208   55.7473 O   0  0  0  0  0  0  0  0  0  0  0  0
   34.4683   39.1385   55.5603 C   0  0  0  0  0  0  0  0  0  0  0  0
   34.5751   38.2238   54.3592 C   0  0  0  0  0  0  0  0  0  0  0  0
   33.8014   36.9516   54.7802 C   0  0  0  0  0  0  0  0  0  0  0  0
   32.8354   37.5114   55.8410 C   0  0  1  0  0  0  0  0  0  0  0  0
   31.8771   37.7742   55.3931 H   0  0  0  0  0  0  0  0  0  0  0  0
   32.6610   36.5141   56.9637 C   0  0  0  0  0  0  0  0  0  0  0  0
   32.7222   35.3193   56.7680 O   0  0  0  0  0  0  0  0  0  0  0  0
   32.4327   37.0230   58.2036 N   0  0  0  0  0  0  0  0  0  0  0  0
   32.4261   36.3320   59.3534 C   0  0  0  0  0  0  0  0  0  0  0  0
   32.5527   35.1296   59.4409 O   0  0  0  0  0  0  0  0  0  0  0  0
   32.2369   37.2704   60.5259 C   0  0  0  0  0  0  0  0  0  0  0  0
   32.5250   38.6734   59.9405 C   0  0  0  0  0  0  0  0  0  0  0  0
   32.2096   38.4597   58.4481 C   0  0  1  0  0  0  0  0  0  0  0  0
   31.1791   38.7365   58.2255 H   0  0  0  0  0  0  0  0  0  0  0  0
   33.1843   39.2404   57.5956 C   0  0  0  0  0  0  0  0  0  0  0  0
   33.6563   40.2920   57.9710 O   0  0  0  0  0  0  0  0  0  0  0  0
   33.5052   38.7059   56.3878 N   0  0  0  0  0  0  0  0  0  0  0  0
   35.6185   37.9850   54.1533 H   0  0  0  0  0  0  0  0  0  0  0  0
   34.1101   38.6816   53.4861 H   0  0  0  0  0  0  0  0  0  0  0  0
   34.4734   36.2121   55.2156 H   0  0  0  0  0  0  0  0  0  0  0  0
   33.2538   36.5306   53.9369 H   0  0  0  0  0  0  0  0  0  0  0  0
   32.9455   37.0358   61.3202 H   0  0  0  0  0  0  0  0  0  0  0  0
   31.2145   37.2156   60.8996 H   0  0  0  0  0  0  0  0  0  0  0  0
   33.5699   38.9489   60.0831 H   0  0  0  0  0  0  0  0  0  0  0  0
   31.8627   39.4216   60.3762 H   0  0  0  0  0  0  0  0  0  0  0  0
  1  2  2  0  0  0  0
  2 18  1  0  0  0  0
  2  3  1  0  0  0  0
  3  4  1  0  0  0  0
  3 19  1  0  0  0  0
  3 20  1  0  0  0  0
  4  5  1  0  0  0  0
  4 21  1  0  0  0  0
  4 22  1  0  0  0  0
  5  6  1  6  0  0  0
  5 18  1  0  0  0  0
  5  7  1  0  0  0  0
  7  8  2  0  0  0  0
  7  9  1  0  0  0  0
  9 14  1  0  0  0  0
  9 10  1  0  0  0  0
 10 11  2  0  0  0  0
 10 12  1  0  0  0  0
 12 13  1  0  0  0  0
 12 23  1  0  0  0  0
 12 24  1  0  0  0  0
 13 14  1  0  0  0  0
 13 25  1  0  0  0  0
 13 26  1  0  0  0  0
 14 15  1  6  0  0  0
 14 16  1  0  0  0  0
 16 17  2  0  0  0  0
 16 18  1  0  0  0  0
M  END
$$$$
