ZINC000000020462      none
 OpenBabel11202420153D

 43 45  0  0  0  0  0  0  0  0999 V2000
   29.2001   35.9105   68.0680 C   0  0  0  0  0  0  0  0  0  0  0  0
   29.5006   34.7337   67.1375 C   0  0  0  0  0  0  0  0  0  0  0  0
   28.1864   34.1053   66.6694 C   0  0  0  0  0  0  0  0  0  0  0  0
   30.3270   33.6878   67.8884 C   0  0  0  0  0  0  0  0  0  0  0  0
   30.2551   35.2101   65.9756 N   0  0  0  0  0  0  0  0  0  0  0  0
   29.7272   35.0467   64.6905 N   0  0  0  0  0  0  0  0  0  0  0  0
   30.3776   35.4619   63.6392 C   0  0  0  0  0  0  0  0  0  0  0  0
   31.6326   36.0875   63.7766 C   0  0  0  0  0  0  0  0  0  0  0  0
   32.3049   36.5179   62.6815 O   0  0  0  0  0  0  0  0  0  0  0  0
   31.6569   37.4953   61.8649 C   0  0  0  0  0  0  0  0  0  0  0  0
   32.1024   37.3304   60.4348 C   0  0  0  0  0  0  0  0  0  0  0  0
   32.1548   36.0553   59.8748 C   0  0  0  0  0  0  0  0  0  0  0  0
   32.5522   35.8716   58.5862 C   0  0  0  0  0  0  0  0  0  0  0  0
   32.9164   36.9822   57.8058 C   0  0  0  0  0  0  0  0  0  0  0  0
   33.3315   36.8323   56.4716 C   0  0  0  0  0  0  0  0  0  0  0  0
   33.6765   37.9309   55.7461 C   0  0  0  0  0  0  0  0  0  0  0  0
   33.6246   39.2061   56.3064 C   0  0  0  0  0  0  0  0  0  0  0  0
   33.2281   39.3895   57.5953 C   0  0  0  0  0  0  0  0  0  0  0  0
   32.8638   38.2789   58.3755 C   0  0  0  0  0  0  0  0  0  0  0  0
   32.4424   38.4295   59.7078 C   0  0  0  0  0  0  0  0  0  0  0  0
   32.1741   36.2534   65.0350 C   0  0  0  0  0  0  0  0  0  0  0  0
   33.7219   37.0138   65.2345 Cl  0  0  0  0  0  0  0  0  0  0  0  0
   31.4525   35.8029   66.1528 C   0  0  0  0  0  0  0  0  0  0  0  0
   31.9090   35.9430   67.2768 O   0  0  0  0  0  0  0  0  0  0  0  0
   28.6114   36.6556   67.5330 H   0  0  0  0  0  0  0  0  0  0  0  0
   28.6388   35.5561   68.9324 H   0  0  0  0  0  0  0  0  0  0  0  0
   30.1364   36.3582   68.4014 H   0  0  0  0  0  0  0  0  0  0  0  0
   28.4004   33.2669   66.0066 H   0  0  0  0  0  0  0  0  0  0  0  0
   27.6251   33.7508   67.5339 H   0  0  0  0  0  0  0  0  0  0  0  0
   27.5976   34.8505   66.1344 H   0  0  0  0  0  0  0  0  0  0  0  0
   31.2632   34.1356   68.2219 H   0  0  0  0  0  0  0  0  0  0  0  0
   29.7656   33.3335   68.7529 H   0  0  0  0  0  0  0  0  0  0  0  0
   30.5411   32.8495   67.2255 H   0  0  0  0  0  0  0  0  0  0  0  0
   29.9512   35.3254   62.6563 H   0  0  0  0  0  0  0  0  0  0  0  0
   31.9203   38.4934   62.2148 H   0  0  0  0  0  0  0  0  0  0  0  0
   30.5768   37.3621   61.9267 H   0  0  0  0  0  0  0  0  0  0  0  0
   31.8754   35.2000   60.4723 H   0  0  0  0  0  0  0  0  0  0  0  0
   32.5879   34.8775   58.1655 H   0  0  0  0  0  0  0  0  0  0  0  0
   33.3769   35.8504   56.0243 H   0  0  0  0  0  0  0  0  0  0  0  0
   33.9946   37.8130   54.7209 H   0  0  0  0  0  0  0  0  0  0  0  0
   33.9037   40.0614   55.7088 H   0  0  0  0  0  0  0  0  0  0  0  0
   33.1935   40.3835   58.0164 H   0  0  0  0  0  0  0  0  0  0  0  0
   32.3924   39.4120   60.1535 H   0  0  0  0  0  0  0  0  0  0  0  0
  1  2  1  0  0  0  0
  1 25  1  0  0  0  0
  1 26  1  0  0  0  0
  1 27  1  0  0  0  0
  2  3  1  0  0  0  0
  2  4  1  0  0  0  0
  2  5  1  0  0  0  0
  3 28  1  0  0  0  0
  3 29  1  0  0  0  0
  3 30  1  0  0  0  0
  4 31  1  0  0  0  0
  4 32  1  0  0  0  0
  4 33  1  0  0  0  0
  5 23  1  0  0  0  0
  5  6  1  0  0  0  0
  6  7  2  0  0  0  0
  7  8  1  0  0  0  0
  7 34  1  0  0  0  0
  8  9  1  0  0  0  0
  8 21  2  0  0  0  0
  9 10  1  0  0  0  0
 10 11  1  0  0  0  0
 10 35  1  0  0  0  0
 10 36  1  0  0  0  0
 11 20  2  0  0  0  0
 11 12  1  0  0  0  0
 12 13  2  0  0  0  0
 12 37  1  0  0  0  0
 13 14  1  0  0  0  0
 13 38  1  0  0  0  0
 14 19  2  0  0  0  0
 14 15  1  0  0  0  0
 15 16  2  0  0  0  0
 15 39  1  0  0  0  0
 16 17  1  0  0  0  0
 16 40  1  0  0  0  0
 17 18  2  0  0  0  0
 17 41  1  0  0  0  0
 18 19  1  0  0  0  0
 18 42  1  0  0  0  0
 19 20  1  0  0  0  0
 20 43  1  0  0  0  0
 21 22  1  0  0  0  0
 21 23  1  0  0  0  0
 23 24  2  0  0  0  0
M  END
$$$$
