ZINC000000044753      none
 OpenBabel11202420153D

 43 45  0  0  1  0  0  0  0  0999 V2000
   34.1514   38.6549   54.9425 C   0  0  0  0  0  0  0  0  0  0  0  0
   33.8470   37.2598   55.4242 C   0  0  0  0  0  0  0  0  0  0  0  0
   34.1821   36.1700   54.6414 C   0  0  0  0  0  0  0  0  0  0  0  0
   33.9047   34.8885   55.0801 C   0  0  0  0  0  0  0  0  0  0  0  0
   33.2969   34.6925   56.3048 C   0  0  0  0  0  0  0  0  0  0  0  0
   33.0006   33.2952   56.7850 C   0  0  0  0  0  0  0  0  0  0  0  0
   32.9540   35.7847   57.0906 C   0  0  0  0  0  0  0  0  0  0  0  0
   32.3328   35.5900   58.3292 N   0  0  0  0  0  0  0  0  0  0  0  0
   32.5276   36.4744   59.3274 C   0  0  0  0  0  0  0  0  0  0  0  0
   33.2415   37.4391   59.1521 O   0  0  0  0  0  0  0  0  0  0  0  0
   31.8585   36.2646   60.6613 C   0  0  2  0  0  0  0  0  0  0  0  0
   31.7150   35.2026   60.8608 H   0  0  0  0  0  0  0  0  0  0  0  0
   30.5155   37.0275   60.7328 C   0  0  0  0  0  0  0  0  0  0  0  0
   30.4469   37.5229   62.1616 C   0  0  0  0  0  0  0  0  0  0  0  0
   29.4421   37.9230   62.7105 O   0  0  0  0  0  0  0  0  0  0  0  0
   31.6616   37.4556   62.7333 N   0  0  0  0  0  0  0  0  0  0  0  0
   31.9352   37.8319   64.0529 C   0  0  0  0  0  0  0  0  0  0  0  0
   32.9499   37.2007   64.7603 C   0  0  0  0  0  0  0  0  0  0  0  0
   33.2209   37.5781   66.0610 C   0  0  0  0  0  0  0  0  0  0  0  0
   32.4762   38.5757   66.6624 C   0  0  0  0  0  0  0  0  0  0  0  0
   31.4612   39.2024   65.9626 C   0  0  0  0  0  0  0  0  0  0  0  0
   31.1887   38.8332   64.6599 C   0  0  0  0  0  0  0  0  0  0  0  0
   32.6641   36.9363   61.7955 C   0  0  0  0  0  0  0  0  0  0  0  0
   33.2339   37.0709   56.6471 C   0  0  0  0  0  0  0  0  0  0  0  0
   35.1454   38.9473   55.2810 H   0  0  0  0  0  0  0  0  0  0  0  0
   34.1170   38.6787   53.8532 H   0  0  0  0  0  0  0  0  0  0  0  0
   33.4123   39.3476   55.3446 H   0  0  0  0  0  0  0  0  0  0  0  0
   34.6618   36.3204   53.6856 H   0  0  0  0  0  0  0  0  0  0  0  0
   34.1674   34.0396   54.4663 H   0  0  0  0  0  0  0  0  0  0  0  0
   32.0087   32.9970   56.4454 H   0  0  0  0  0  0  0  0  0  0  0  0
   33.7445   32.6074   56.3828 H   0  0  0  0  0  0  0  0  0  0  0  0
   33.0343   33.2704   57.8742 H   0  0  0  0  0  0  0  0  0  0  0  0
   31.7619   34.8184   58.4695 H   0  0  0  0  0  0  0  0  0  0  0  0
   30.5161   37.8669   60.0374 H   0  0  0  0  0  0  0  0  0  0  0  0
   29.6836   36.3560   60.5209 H   0  0  0  0  0  0  0  0  0  0  0  0
   33.5292   36.4182   64.2927 H   0  0  0  0  0  0  0  0  0  0  0  0
   34.0127   37.0905   66.6103 H   0  0  0  0  0  0  0  0  0  0  0  0
   32.6876   38.8655   67.6812 H   0  0  0  0  0  0  0  0  0  0  0  0
   30.8811   39.9811   66.4352 H   0  0  0  0  0  0  0  0  0  0  0  0
   30.3961   39.3232   64.1137 H   0  0  0  0  0  0  0  0  0  0  0  0
   33.3004   36.2032   62.2914 H   0  0  0  0  0  0  0  0  0  0  0  0
   33.2670   37.7524   61.3977 H   0  0  0  0  0  0  0  0  0  0  0  0
   32.9720   37.9222   57.2578 H   0  0  0  0  0  0  0  0  0  0  0  0
  1  2  1  0  0  0  0
  1 25  1  0  0  0  0
  1 26  1  0  0  0  0
  1 27  1  0  0  0  0
  2 24  2  0  0  0  0
  2  3  1  0  0  0  0
  3  4  2  0  0  0  0
  3 28  1  0  0  0  0
  4  5  1  0  0  0  0
  4 29  1  0  0  0  0
  5  6  1  0  0  0  0
  5  7  2  0  0  0  0
  6 30  1  0  0  0  0
  6 31  1  0  0  0  0
  6 32  1  0  0  0  0
  7  8  1  0  0  0  0
  7 24  1  0  0  0  0
  8  9  1  0  0  0  0
  8 33  1  0  0  0  0
  9 10  2  0  0  0  0
  9 11  1  0  0  0  0
 11 12  1  1  0  0  0
 11 23  1  0  0  0  0
 11 13  1  0  0  0  0
 13 14  1  0  0  0  0
 13 34  1  0  0  0  0
 13 35  1  0  0  0  0
 14 15  2  0  0  0  0
 14 16  1  0  0  0  0
 16 17  1  0  0  0  0
 16 23  1  0  0  0  0
 17 22  2  0  0  0  0
 17 18  1  0  0  0  0
 18 19  2  0  0  0  0
 18 36  1  0  0  0  0
 19 20  1  0  0  0  0
 19 37  1  0  0  0  0
 20 21  2  0  0  0  0
 20 38  1  0  0  0  0
 21 22  1  0  0  0  0
 21 39  1  0  0  0  0
 22 40  1  0  0  0  0
 23 41  1  0  0  0  0
 23 42  1  0  0  0  0
 24 43  1  0  0  0  0
M  END
$$$$
