ZINC000000006000      none
 OpenBabel11202420153D

 36 38  0  0  0  0  0  0  0  0999 V2000
   31.5821   34.2188   62.7946 O   0  0  0  0  0  0  0  0  0  0  0  0
   31.5670   35.4338   62.8324 C   0  0  0  0  0  0  0  0  0  0  0  0
   31.9203   36.1383   64.0816 C   0  0  0  0  0  0  0  0  0  0  0  0
   33.2470   36.4925   64.3360 C   0  0  0  0  0  0  0  0  0  0  0  0
   33.5698   37.1552   65.5007 C   0  0  0  0  0  0  0  0  0  0  0  0
   32.5831   37.4596   66.4249 C   0  0  0  0  0  0  0  0  0  0  0  0
   32.9998   38.2877   67.8927 Cl  0  0  0  0  0  0  0  0  0  0  0  0
   31.2667   37.1068   66.1826 C   0  0  0  0  0  0  0  0  0  0  0  0
   30.9293   36.4481   65.0169 C   0  0  0  0  0  0  0  0  0  0  0  0
   29.2780   36.0065   64.7136 Cl  0  0  0  0  0  0  0  0  0  0  0  0
   31.2280   36.1381   61.7344 N   0  0  0  0  0  0  0  0  0  0  0  0
   30.8734   35.4518   60.4846 C   0  0  0  0  0  0  0  0  0  0  0  0
   31.7450   36.0060   59.3533 C   0  0  0  0  0  0  0  0  0  0  0  0
   31.5955   37.5281   59.2987 C   0  0  0  0  0  0  0  0  0  0  0  0
   32.4251   38.0737   58.1650 C   0  0  0  0  0  0  0  0  0  0  0  0
   33.0095   39.2856   58.1088 C   0  0  0  0  0  0  0  0  0  0  0  0
   33.6566   39.3803   56.9377 N   0  0  0  0  0  0  0  0  0  0  0  0
   33.4888   38.2762   56.2627 C   0  0  0  0  0  0  0  0  0  0  0  0
   32.7289   37.4328   56.9942 N   0  0  0  0  0  0  0  0  0  0  0  0
   32.4500   36.5398   56.7377 H   0  0  0  0  0  0  0  0  0  0  0  0
   32.0734   38.1368   60.6190 C   0  0  0  0  0  0  0  0  0  0  0  0
   31.2054   37.6069   61.7647 C   0  0  0  0  0  0  0  0  0  0  0  0
   34.0182   36.2519   63.6191 H   0  0  0  0  0  0  0  0  0  0  0  0
   34.5949   37.4337   65.6957 H   0  0  0  0  0  0  0  0  0  0  0  0
   30.5021   37.3475   66.9064 H   0  0  0  0  0  0  0  0  0  0  0  0
   29.8223   35.6282   60.2563 H   0  0  0  0  0  0  0  0  0  0  0  0
   31.0495   34.3812   60.5905 H   0  0  0  0  0  0  0  0  0  0  0  0
   31.4264   35.5750   58.4042 H   0  0  0  0  0  0  0  0  0  0  0  0
   32.7880   35.7492   59.5378 H   0  0  0  0  0  0  0  0  0  0  0  0
   30.5482   37.7847   59.1385 H   0  0  0  0  0  0  0  0  0  0  0  0
   32.9673   40.0467   58.8739 H   0  0  0  0  0  0  0  0  0  0  0  0
   33.8944   38.0691   55.2834 H   0  0  0  0  0  0  0  0  0  0  0  0
   33.1134   37.8598   60.7919 H   0  0  0  0  0  0  0  0  0  0  0  0
   31.9888   39.2224   60.5708 H   0  0  0  0  0  0  0  0  0  0  0  0
   30.1813   37.9592   61.6406 H   0  0  0  0  0  0  0  0  0  0  0  0
   31.6001   37.9588   62.7179 H   0  0  0  0  0  0  0  0  0  0  0  0
  1  2  2  0  0  0  0
  2  3  1  0  0  0  0
  2 11  1  0  0  0  0
  3  9  2  0  0  0  0
  3  4  1  0  0  0  0
  4  5  2  0  0  0  0
  4 23  1  0  0  0  0
  5  6  1  0  0  0  0
  5 24  1  0  0  0  0
  6  7  1  0  0  0  0
  6  8  2  0  0  0  0
  8  9  1  0  0  0  0
  8 25  1  0  0  0  0
  9 10  1  0  0  0  0
 11 22  1  0  0  0  0
 11 12  1  0  0  0  0
 12 13  1  0  0  0  0
 12 26  1  0  0  0  0
 12 27  1  0  0  0  0
 13 14  1  0  0  0  0
 13 28  1  0  0  0  0
 13 29  1  0  0  0  0
 14 15  1  0  0  0  0
 14 21  1  0  0  0  0
 14 30  1  0  0  0  0
 15 19  1  0  0  0  0
 15 16  2  0  0  0  0
 16 17  1  0  0  0  0
 16 31  1  0  0  0  0
 17 18  2  0  0  0  0
 18 19  1  0  0  0  0
 18 32  1  0  0  0  0
 19 20  1  0  0  0  0
 21 22  1  0  0  0  0
 21 33  1  0  0  0  0
 21 34  1  0  0  0  0
 22 35  1  0  0  0  0
 22 36  1  0  0  0  0
M  END
$$$$
