ZINC000000037805      none
 OpenBabel11202420153D

 31 32  0  0  0  0  0  0  0  0999 V2000
   32.2357   37.4838   65.5812 N   0  0  0  0  0  0  0  0  0  0  0  0
   32.0437   36.8721   64.3957 C   0  0  0  0  0  0  0  0  0  0  0  0
   32.7636   35.9544   64.0633 O   0  0  0  0  0  0  0  0  0  0  0  0
   30.9346   37.3282   63.4832 C   0  0  0  0  0  0  0  0  0  0  0  0
   31.6361   37.8722   61.9058 S   0  0  0  0  0  0  0  0  0  0  0  0
   31.6041   36.3517   61.0161 C   0  0  0  0  0  0  0  0  0  0  0  0
   31.1700   35.1933   61.4636 N   0  0  0  0  0  0  0  0  0  0  0  0
   31.2841   34.2900   60.5579 N   0  0  0  0  0  0  0  0  0  0  0  0
   31.7987   34.7913   59.4876 N   0  0  0  0  0  0  0  0  0  0  0  0
   32.0269   36.1542   59.7452 N   0  0  0  0  0  0  0  0  0  0  0  0
   32.5989   37.1482   58.8335 C   0  0  0  0  0  0  0  0  0  0  0  0
   31.5857   38.2711   58.6025 C   0  0  0  0  0  0  0  0  0  0  0  0
   32.1831   39.3092   57.6504 C   0  0  0  0  0  0  0  0  0  0  0  0
   32.5189   38.6426   56.3148 C   0  0  0  0  0  0  0  0  0  0  0  0
   33.5321   37.5197   56.5457 C   0  0  0  0  0  0  0  0  0  0  0  0
   32.9347   36.4816   57.4979 C   0  0  0  0  0  0  0  0  0  0  0  0
   31.6599   38.2178   65.8469 H   0  0  0  0  0  0  0  0  0  0  0  0
   32.9496   37.1903   66.1684 H   0  0  0  0  0  0  0  0  0  0  0  0
   30.3993   38.1565   63.9477 H   0  0  0  0  0  0  0  0  0  0  0  0
   30.2448   36.5024   63.3086 H   0  0  0  0  0  0  0  0  0  0  0  0
   33.5071   37.5626   59.2712 H   0  0  0  0  0  0  0  0  0  0  0  0
   30.6776   37.8568   58.1648 H   0  0  0  0  0  0  0  0  0  0  0  0
   31.3465   38.7460   59.5541 H   0  0  0  0  0  0  0  0  0  0  0  0
   33.0913   39.7236   58.0882 H   0  0  0  0  0  0  0  0  0  0  0  0
   31.4613   40.1093   57.4859 H   0  0  0  0  0  0  0  0  0  0  0  0
   32.9445   39.3821   55.6365 H   0  0  0  0  0  0  0  0  0  0  0  0
   31.6107   38.2282   55.8771 H   0  0  0  0  0  0  0  0  0  0  0  0
   34.4403   37.9341   56.9835 H   0  0  0  0  0  0  0  0  0  0  0  0
   33.7713   37.0448   55.5943 H   0  0  0  0  0  0  0  0  0  0  0  0
   33.6565   35.6817   57.6624 H   0  0  0  0  0  0  0  0  0  0  0  0
   32.0266   36.0673   57.0602 H   0  0  0  0  0  0  0  0  0  0  0  0
  1  2  1  0  0  0  0
  1 17  1  0  0  0  0
  1 18  1  0  0  0  0
  2  3  2  0  0  0  0
  2  4  1  0  0  0  0
  4  5  1  0  0  0  0
  4 19  1  0  0  0  0
  4 20  1  0  0  0  0
  5  6  1  0  0  0  0
  6 10  1  0  0  0  0
  6  7  2  0  0  0  0
  7  8  1  0  0  0  0
  8  9  2  0  0  0  0
  9 10  1  0  0  0  0
 10 11  1  0  0  0  0
 11 16  1  0  0  0  0
 11 12  1  0  0  0  0
 11 21  1  0  0  0  0
 12 13  1  0  0  0  0
 12 22  1  0  0  0  0
 12 23  1  0  0  0  0
 13 14  1  0  0  0  0
 13 24  1  0  0  0  0
 13 25  1  0  0  0  0
 14 15  1  0  0  0  0
 14 26  1  0  0  0  0
 14 27  1  0  0  0  0
 15 16  1  0  0  0  0
 15 28  1  0  0  0  0
 15 29  1  0  0  0  0
 16 30  1  0  0  0  0
 16 31  1  0  0  0  0
M  END
$$$$
