ZINC000000002080      none
 OpenBabel11202420153D

 20 22  0  0  0  0  0  0  0  0999 V2000
   33.9736   36.6237   54.6286 C   0  0  0  0  0  0  0  0  0  0  0  0
   33.6149   35.5310   55.4091 C   0  0  0  0  0  0  0  0  0  0  0  0
   33.1863   35.7056   56.6941 C   0  0  0  0  0  0  0  0  0  0  0  0
   33.1078   36.9921   57.2297 C   0  0  0  0  0  0  0  0  0  0  0  0
   33.4765   38.1079   56.4432 C   0  0  0  0  0  0  0  0  0  0  0  0
   33.9067   37.8918   55.1240 C   0  0  0  0  0  0  0  0  0  0  0  0
   33.4132   39.3538   56.9392 N   0  0  0  0  0  0  0  0  0  0  0  0
   33.0237   39.6257   58.1528 C   0  0  0  0  0  0  0  0  0  0  0  0
   32.6232   38.5629   59.0652 C   0  0  0  0  0  0  0  0  0  0  0  0
   32.2190   38.7971   60.3130 N   0  0  0  0  0  0  0  0  0  0  0  0
   31.8747   37.7774   61.0721 C   0  0  0  0  0  0  0  0  0  0  0  0
   31.9200   36.5299   60.6266 N   0  0  0  0  0  0  0  0  0  0  0  0
   32.3034   36.2442   59.4276 N   0  0  0  0  0  0  0  0  0  0  0  0
   32.6541   37.2234   58.6026 C   0  0  0  0  0  0  0  0  0  0  0  0
   34.3098   36.4657   53.6145 H   0  0  0  0  0  0  0  0  0  0  0  0
   33.6753   34.5351   54.9958 H   0  0  0  0  0  0  0  0  0  0  0  0
   32.9095   34.8512   57.2938 H   0  0  0  0  0  0  0  0  0  0  0  0
   34.1889   38.7296   54.5036 H   0  0  0  0  0  0  0  0  0  0  0  0
   32.9971   40.6525   58.4866 H   0  0  0  0  0  0  0  0  0  0  0  0
   31.5464   37.9626   62.0841 H   0  0  0  0  0  0  0  0  0  0  0  0
  1  6  2  0  0  0  0
  1  2  1  0  0  0  0
  1 15  1  0  0  0  0
  2  3  2  0  0  0  0
  2 16  1  0  0  0  0
  3  4  1  0  0  0  0
  3 17  1  0  0  0  0
  4 14  2  0  0  0  0
  4  5  1  0  0  0  0
  5  6  1  0  0  0  0
  5  7  2  0  0  0  0
  6 18  1  0  0  0  0
  7  8  1  0  0  0  0
  8  9  2  0  0  0  0
  8 19  1  0  0  0  0
  9 14  1  0  0  0  0
  9 10  1  0  0  0  0
 10 11  2  0  0  0  0
 11 12  1  0  0  0  0
 11 20  1  0  0  0  0
 12 13  2  0  0  0  0
 13 14  1  0  0  0  0
M  END
$$$$
