ZINC000000038850      none
 OpenBabel11202420153D

 30 30  0  0  0  0  0  0  0  0999 V2000
   32.6017   33.8671   61.7957 C   0  0  0  0  0  0  0  0  0  0  0  0
   32.7500   35.2894   62.0472 O   0  0  0  0  0  0  0  0  0  0  0  0
   31.9163   35.8400   62.9435 C   0  0  0  0  0  0  0  0  0  0  0  0
   31.0899   35.1562   63.4997 O   0  0  0  0  0  0  0  0  0  0  0  0
   32.0110   37.3112   63.2562 C   0  0  0  0  0  0  0  0  0  0  0  0
   31.0990   38.0936   62.3091 C   0  0  0  0  0  0  0  0  0  0  0  0
   31.5296   37.8540   60.8849 C   0  0  0  0  0  0  0  0  0  0  0  0
   31.0551   36.9327   60.2547 O   0  0  0  0  0  0  0  0  0  0  0  0
   32.4423   38.6632   60.3117 N   0  0  0  0  0  0  0  0  0  0  0  0
   32.8428   38.4404   58.9884 C   0  0  0  0  0  0  0  0  0  0  0  0
   32.8459   37.1527   58.4700 C   0  0  0  0  0  0  0  0  0  0  0  0
   33.2377   36.9363   57.1631 C   0  0  0  0  0  0  0  0  0  0  0  0
   33.2365   35.5638   56.6091 N   0  0  0  0  0  0  0  0  0  0  0  0
   32.8902   34.6263   57.3053 O   0  0  0  0  0  0  0  0  0  0  0  0
   33.5816   35.3718   55.4568 O   0  0  0  0  0  0  0  0  0  0  0  0
   33.6357   37.9992   56.3730 C   0  0  0  0  0  0  0  0  0  0  0  0
   33.6389   39.2831   56.8863 C   0  0  0  0  0  0  0  0  0  0  0  0
   33.2437   39.5077   58.1925 C   0  0  0  0  0  0  0  0  0  0  0  0
   33.2477   40.7620   58.6944 F   0  0  0  0  0  0  0  0  0  0  0  0
   33.3345   33.5509   61.0533 H   0  0  0  0  0  0  0  0  0  0  0  0
   32.7619   33.3156   62.7222 H   0  0  0  0  0  0  0  0  0  0  0  0
   31.5971   33.6669   61.4230 H   0  0  0  0  0  0  0  0  0  0  0  0
   33.0407   37.6447   63.1270 H   0  0  0  0  0  0  0  0  0  0  0  0
   31.6995   37.4845   64.2863 H   0  0  0  0  0  0  0  0  0  0  0  0
   31.1673   39.1577   62.5352 H   0  0  0  0  0  0  0  0  0  0  0  0
   30.0693   37.7601   62.4383 H   0  0  0  0  0  0  0  0  0  0  0  0
   32.8218   39.4000   60.8158 H   0  0  0  0  0  0  0  0  0  0  0  0
   32.5393   36.3210   59.0870 H   0  0  0  0  0  0  0  0  0  0  0  0
   33.9450   37.8261   55.3529 H   0  0  0  0  0  0  0  0  0  0  0  0
   33.9506   40.1111   56.2667 H   0  0  0  0  0  0  0  0  0  0  0  0
  1  2  1  0  0  0  0
  1 20  1  0  0  0  0
  1 21  1  0  0  0  0
  1 22  1  0  0  0  0
  2  3  1  0  0  0  0
  3  4  2  0  0  0  0
  3  5  1  0  0  0  0
  5  6  1  0  0  0  0
  5 23  1  0  0  0  0
  5 24  1  0  0  0  0
  6  7  1  0  0  0  0
  6 25  1  0  0  0  0
  6 26  1  0  0  0  0
  7  8  2  0  0  0  0
  7  9  1  0  0  0  0
  9 10  1  0  0  0  0
  9 27  1  0  0  0  0
 10 18  2  0  0  0  0
 10 11  1  0  0  0  0
 11 12  2  0  0  0  0
 11 28  1  0  0  0  0
 12 13  1  0  0  0  0
 12 16  1  0  0  0  0
 13 14  2  0  0  0  0
 13 15  2  0  0  0  0
 16 17  2  0  0  0  0
 16 29  1  0  0  0  0
 17 18  1  0  0  0  0
 17 30  1  0  0  0  0
 18 19  1  0  0  0  0
M  END
$$$$
