ZINC000000054551      none
 OpenBabel11202420153D

 29 31  0  0  0  0  0  0  0  0999 V2000
   33.0894   35.9162   56.6620 O   0  0  0  0  0  0  0  0  0  0  0  0
   33.1124   37.0242   57.1670 C   0  0  0  0  0  0  0  0  0  0  0  0
   33.5132   38.0871   56.4417 N   0  0  0  0  0  0  0  0  0  0  0  0
   33.9024   37.9177   55.1093 C   0  0  0  0  0  0  0  0  0  0  0  0
   34.8490   38.7654   54.5476 C   0  0  0  0  0  0  0  0  0  0  0  0
   35.2359   38.5924   53.2333 C   0  0  0  0  0  0  0  0  0  0  0  0
   34.6740   37.5838   52.4723 C   0  0  0  0  0  0  0  0  0  0  0  0
   33.7266   36.7411   53.0266 C   0  0  0  0  0  0  0  0  0  0  0  0
   33.0241   35.4757   52.0677 Cl  0  0  0  0  0  0  0  0  0  0  0  0
   33.3394   36.9057   54.3433 C   0  0  0  0  0  0  0  0  0  0  0  0
   32.7181   37.1958   58.5169 C   0  0  0  0  0  0  0  0  0  0  0  0
   32.6922   38.7285   59.3747 S   0  0  0  0  0  0  0  0  0  0  0  0
   32.1040   37.9457   60.8318 C   0  0  0  0  0  0  0  0  0  0  0  0
   31.9543   36.6268   60.6339 C   0  0  0  0  0  0  0  0  0  0  0  0
   32.2936   36.1908   59.3485 C   0  0  0  0  0  0  0  0  0  0  0  0
   32.2013   34.8661   58.9862 O   0  0  0  0  0  0  0  0  0  0  0  0
   32.1039   33.9536   60.0878 C   0  0  0  0  0  0  0  0  0  0  0  0
   31.0651   34.4786   61.0843 C   0  0  0  0  0  0  0  0  0  0  0  0
   31.5024   35.7440   61.5970 O   0  0  0  0  0  0  0  0  0  0  0  0
   33.5316   38.9696   56.8439 H   0  0  0  0  0  0  0  0  0  0  0  0
   35.2850   39.5564   55.1397 H   0  0  0  0  0  0  0  0  0  0  0  0
   35.9751   39.2485   52.7979 H   0  0  0  0  0  0  0  0  0  0  0  0
   34.9753   37.4533   51.4434 H   0  0  0  0  0  0  0  0  0  0  0  0
   32.6003   36.2477   54.7760 H   0  0  0  0  0  0  0  0  0  0  0  0
   31.8918   38.4555   61.7600 H   0  0  0  0  0  0  0  0  0  0  0  0
   31.7963   32.9737   59.7231 H   0  0  0  0  0  0  0  0  0  0  0  0
   33.0729   33.8724   60.5804 H   0  0  0  0  0  0  0  0  0  0  0  0
   30.1065   34.6014   60.5802 H   0  0  0  0  0  0  0  0  0  0  0  0
   30.9569   33.7697   61.9051 H   0  0  0  0  0  0  0  0  0  0  0  0
  1  2  2  0  0  0  0
  2  3  1  0  0  0  0
  2 11  1  0  0  0  0
  3  4  1  0  0  0  0
  3 20  1  0  0  0  0
  4 10  2  0  0  0  0
  4  5  1  0  0  0  0
  5  6  2  0  0  0  0
  5 21  1  0  0  0  0
  6  7  1  0  0  0  0
  6 22  1  0  0  0  0
  7  8  2  0  0  0  0
  7 23  1  0  0  0  0
  8  9  1  0  0  0  0
  8 10  1  0  0  0  0
 10 24  1  0  0  0  0
 11 15  2  0  0  0  0
 11 12  1  0  0  0  0
 12 13  1  0  0  0  0
 13 14  2  0  0  0  0
 13 25  1  0  0  0  0
 14 19  1  0  0  0  0
 14 15  1  0  0  0  0
 15 16  1  0  0  0  0
 16 17  1  0  0  0  0
 17 18  1  0  0  0  0
 17 26  1  0  0  0  0
 17 27  1  0  0  0  0
 18 19  1  0  0  0  0
 18 28  1  0  0  0  0
 18 29  1  0  0  0  0
M  END
$$$$
