ZINC000000022036      none
 OpenBabel11202420153D

 25 26  0  0  0  0  0  0  0  0999 V2000
   30.6883   36.3204   63.2766 C   0  0  0  0  0  0  0  0  0  0  0  0
   31.4440   36.5690   62.0416 N   0  0  0  0  0  0  0  0  0  0  0  0
   31.5771   38.0102   61.7867 C   0  0  0  0  0  0  0  0  0  0  0  0
   32.4353   38.2279   60.5384 C   0  0  0  0  0  0  0  0  0  0  0  0
   31.8120   37.5489   59.3938 N   0  0  0  0  0  0  0  0  0  0  0  0
   32.5247   37.7838   58.2284 C   0  0  0  0  0  0  0  0  0  0  0  0
   33.0736   36.8656   57.4953 N   0  0  0  0  0  0  0  0  0  0  0  0
   33.7138   37.2695   56.4125 C   0  0  0  0  0  0  0  0  0  0  0  0
   33.7134   38.5899   56.2282 C   0  0  0  0  0  0  0  0  0  0  0  0
   32.8146   39.3270   57.5520 S   0  0  0  0  0  0  0  0  0  0  0  0
   31.6793   36.1077   59.6486 C   0  0  0  0  0  0  0  0  0  0  0  0
   30.8210   35.8900   60.8969 C   0  0  0  0  0  0  0  0  0  0  0  0
   29.6920   36.7529   63.1862 H   0  0  0  0  0  0  0  0  0  0  0  0
   30.6046   35.2462   63.4414 H   0  0  0  0  0  0  0  0  0  0  0  0
   31.2078   36.7779   64.1188 H   0  0  0  0  0  0  0  0  0  0  0  0
   32.0525   38.4886   62.6429 H   0  0  0  0  0  0  0  0  0  0  0  0
   30.5897   38.4443   61.6295 H   0  0  0  0  0  0  0  0  0  0  0  0
   32.5112   39.2953   60.3308 H   0  0  0  0  0  0  0  0  0  0  0  0
   33.4315   37.8185   60.7060 H   0  0  0  0  0  0  0  0  0  0  0  0
   34.2016   36.5856   55.7337 H   0  0  0  0  0  0  0  0  0  0  0  0
   34.1824   39.1161   55.4098 H   0  0  0  0  0  0  0  0  0  0  0  0
   31.2039   35.6292   58.7923 H   0  0  0  0  0  0  0  0  0  0  0  0
   32.6668   35.6738   59.8060 H   0  0  0  0  0  0  0  0  0  0  0  0
   29.8250   36.2996   60.7294 H   0  0  0  0  0  0  0  0  0  0  0  0
   30.7450   34.8225   61.1043 H   0  0  0  0  0  0  0  0  0  0  0  0
  1  2  1  0  0  0  0
  1 13  1  0  0  0  0
  1 14  1  0  0  0  0
  1 15  1  0  0  0  0
  2 12  1  0  0  0  0
  2  3  1  0  0  0  0
  3  4  1  0  0  0  0
  3 16  1  0  0  0  0
  3 17  1  0  0  0  0
  4  5  1  0  0  0  0
  4 18  1  0  0  0  0
  4 19  1  0  0  0  0
  5  6  1  0  0  0  0
  5 11  1  0  0  0  0
  6 10  1  0  0  0  0
  6  7  2  0  0  0  0
  7  8  1  0  0  0  0
  8  9  2  0  0  0  0
  8 20  1  0  0  0  0
  9 10  1  0  0  0  0
  9 21  1  0  0  0  0
 11 12  1  0  0  0  0
 11 22  1  0  0  0  0
 11 23  1  0  0  0  0
 12 24  1  0  0  0  0
 12 25  1  0  0  0  0
M  END
$$$$
