ZINC000000032549      none
 OpenBabel11202420153D

 31 34  0  0  0  0  0  0  0  0999 V2000
   33.2273   39.4952   56.4241 O   0  0  0  0  0  0  0  0  0  0  0  0
   33.4179   38.3107   56.2205 C   0  0  0  0  0  0  0  0  0  0  0  0
   33.8815   37.7687   55.0814 N   0  0  0  0  0  0  0  0  0  0  0  0
   33.9766   36.3854   55.1804 C   0  0  0  0  0  0  0  0  0  0  0  0
   34.3962   35.4202   54.2721 C   0  0  0  0  0  0  0  0  0  0  0  0
   34.3934   34.0861   54.6272 C   0  0  0  0  0  0  0  0  0  0  0  0
   33.9746   33.6917   55.8873 C   0  0  0  0  0  0  0  0  0  0  0  0
   33.5542   34.6345   56.8033 C   0  0  0  0  0  0  0  0  0  0  0  0
   33.5532   35.9825   56.4552 C   0  0  0  0  0  0  0  0  0  0  0  0
   33.1748   37.2144   57.1786 C   0  0  0  0  0  0  0  0  0  0  0  0
   32.6979   37.3177   58.4713 C   0  0  0  0  0  0  0  0  0  0  0  0
   32.4766   38.7917   59.4326 S   0  0  0  0  0  0  0  0  0  0  0  0
   31.8573   37.9487   60.8544 C   0  0  0  0  0  0  0  0  0  0  0  0
   31.8447   36.5945   60.5728 N   0  0  0  0  0  0  0  0  0  0  0  0
   32.2525   36.2278   59.3591 C   0  0  0  0  0  0  0  0  0  0  0  0
   32.2612   35.0648   59.0062 O   0  0  0  0  0  0  0  0  0  0  0  0
   31.3866   35.6244   61.6025 C   0  0  0  0  0  0  0  0  0  0  0  0
   31.6483   36.2515   62.9762 C   0  0  0  0  0  0  0  0  0  0  0  0
   30.9738   37.6225   63.0520 C   0  0  0  0  0  0  0  0  0  0  0  0
   31.4777   38.4842   61.9771 N   0  0  0  0  0  0  0  0  0  0  0  0
   34.1196   38.2779   54.2908 H   0  0  0  0  0  0  0  0  0  0  0  0
   34.7254   35.7147   53.2865 H   0  0  0  0  0  0  0  0  0  0  0  0
   34.7213   33.3427   53.9158 H   0  0  0  0  0  0  0  0  0  0  0  0
   33.9767   32.6449   56.1531 H   0  0  0  0  0  0  0  0  0  0  0  0
   33.2278   34.3278   57.7861 H   0  0  0  0  0  0  0  0  0  0  0  0
   31.9454   34.6932   61.5082 H   0  0  0  0  0  0  0  0  0  0  0  0
   30.3208   35.4312   61.4807 H   0  0  0  0  0  0  0  0  0  0  0  0
   32.7220   36.3666   63.1239 H   0  0  0  0  0  0  0  0  0  0  0  0
   31.2424   35.6039   63.7534 H   0  0  0  0  0  0  0  0  0  0  0  0
   31.1923   38.0810   64.0164 H   0  0  0  0  0  0  0  0  0  0  0  0
   29.8957   37.5024   62.9448 H   0  0  0  0  0  0  0  0  0  0  0  0
  1  2  2  0  0  0  0
  2 10  1  0  0  0  0
  2  3  1  0  0  0  0
  3  4  1  0  0  0  0
  3 21  1  0  0  0  0
  4  9  2  0  0  0  0
  4  5  1  0  0  0  0
  5  6  2  0  0  0  0
  5 22  1  0  0  0  0
  6  7  1  0  0  0  0
  6 23  1  0  0  0  0
  7  8  2  0  0  0  0
  7 24  1  0  0  0  0
  8  9  1  0  0  0  0
  8 25  1  0  0  0  0
  9 10  1  0  0  0  0
 10 11  2  0  0  0  0
 11 15  1  0  0  0  0
 11 12  1  0  0  0  0
 12 13  1  0  0  0  0
 13 20  2  0  0  0  0
 13 14  1  0  0  0  0
 14 15  1  0  0  0  0
 14 17  1  0  0  0  0
 15 16  2  0  0  0  0
 17 18  1  0  0  0  0
 17 26  1  0  0  0  0
 17 27  1  0  0  0  0
 18 19  1  0  0  0  0
 18 28  1  0  0  0  0
 18 29  1  0  0  0  0
 19 20  1  0  0  0  0
 19 30  1  0  0  0  0
 19 31  1  0  0  0  0
M  END
$$$$
