ZINC000000051495      none
 OpenBabel11202420153D

 32 33  0  0  0  0  0  0  0  0999 V2000
   33.3251   34.0495   57.9260 C   0  0  0  0  0  0  0  0  0  0  0  0
   32.5020   34.5893   58.8035 C   0  0  0  0  0  0  0  0  0  0  0  0
   32.2125   35.9448   58.9756 N   0  0  0  0  0  0  0  0  0  0  0  0
   32.7645   36.9769   58.2243 C   0  0  0  0  0  0  0  0  0  0  0  0
   32.9199   38.1688   58.7800 N   0  0  0  0  0  0  0  0  0  0  0  0
   33.4459   39.1708   58.0953 C   0  0  0  0  0  0  0  0  0  0  0  0
   33.6246   40.5225   58.7371 C   0  0  0  0  0  0  0  0  0  0  0  0
   33.8259   38.9637   56.7784 C   0  0  0  0  0  0  0  0  0  0  0  0
   33.6440   37.7051   56.2268 C   0  0  0  0  0  0  0  0  0  0  0  0
   34.0417   37.4333   54.7989 C   0  0  0  0  0  0  0  0  0  0  0  0
   33.1167   36.7456   56.9691 N   0  0  0  0  0  0  0  0  0  0  0  0
   31.3301   36.1090   59.9694 C   0  0  0  0  0  0  0  0  0  0  0  0
   30.9116   37.1927   60.3249 O   0  0  0  0  0  0  0  0  0  0  0  0
   30.9533   34.9485   60.5264 O   0  0  0  0  0  0  0  0  0  0  0  0
   31.6600   33.8728   59.8409 C   0  0  0  0  0  0  0  0  0  0  0  0
   32.5523   33.1078   60.8203 C   0  0  0  0  0  0  0  0  0  0  0  0
   30.6675   32.9229   59.1675 C   0  0  0  0  0  0  0  0  0  0  0  0
   33.4556   32.9778   57.8959 H   0  0  0  0  0  0  0  0  0  0  0  0
   33.8691   34.6791   57.2374 H   0  0  0  0  0  0  0  0  0  0  0  0
   32.7281   41.1217   58.5779 H   0  0  0  0  0  0  0  0  0  0  0  0
   33.7927   40.3974   59.8068 H   0  0  0  0  0  0  0  0  0  0  0  0
   34.4822   41.0261   58.2910 H   0  0  0  0  0  0  0  0  0  0  0  0
   34.2543   39.7652   56.1950 H   0  0  0  0  0  0  0  0  0  0  0  0
   33.1980   37.6413   54.1409 H   0  0  0  0  0  0  0  0  0  0  0  0
   34.8809   38.0736   54.5273 H   0  0  0  0  0  0  0  0  0  0  0  0
   34.3338   36.3882   54.6957 H   0  0  0  0  0  0  0  0  0  0  0  0
   31.9355   32.6576   61.5982 H   0  0  0  0  0  0  0  0  0  0  0  0
   33.0913   32.3254   60.2858 H   0  0  0  0  0  0  0  0  0  0  0  0
   33.2658   33.7952   61.2748 H   0  0  0  0  0  0  0  0  0  0  0  0
   30.0548   33.4802   58.4588 H   0  0  0  0  0  0  0  0  0  0  0  0
   31.2136   32.1414   58.6393 H   0  0  0  0  0  0  0  0  0  0  0  0
   30.0268   32.4704   59.9243 H   0  0  0  0  0  0  0  0  0  0  0  0
  1  2  2  0  0  0  0
  1 18  1  0  0  0  0
  1 19  1  0  0  0  0
  2 15  1  0  0  0  0
  2  3  1  0  0  0  0
  3  4  1  0  0  0  0
  3 12  1  0  0  0  0
  4 11  2  0  0  0  0
  4  5  1  0  0  0  0
  5  6  2  0  0  0  0
  6  7  1  0  0  0  0
  6  8  1  0  0  0  0
  7 20  1  0  0  0  0
  7 21  1  0  0  0  0
  7 22  1  0  0  0  0
  8  9  2  0  0  0  0
  8 23  1  0  0  0  0
  9 10  1  0  0  0  0
  9 11  1  0  0  0  0
 10 24  1  0  0  0  0
 10 25  1  0  0  0  0
 10 26  1  0  0  0  0
 12 13  2  0  0  0  0
 12 14  1  0  0  0  0
 14 15  1  0  0  0  0
 15 16  1  0  0  0  0
 15 17  1  0  0  0  0
 16 27  1  0  0  0  0
 16 28  1  0  0  0  0
 16 29  1  0  0  0  0
 17 30  1  0  0  0  0
 17 31  1  0  0  0  0
 17 32  1  0  0  0  0
M  END
$$$$
