ZINC000000007504      none
 OpenBabel11202420153D

 30 32  0  0  0  0  0  0  0  0999 V2000
   33.1745   38.4623   66.1202 C   0  0  0  0  0  0  0  0  0  0  0  0
   33.1624   36.9384   65.9842 C   0  0  0  0  0  0  0  0  0  0  0  0
   31.8874   36.5100   65.4037 N   0  0  0  0  0  0  0  0  0  0  0  0
   31.7462   36.4052   64.0222 C   0  0  0  0  0  0  0  0  0  0  0  0
   32.5027   35.5351   63.3619 N   0  0  0  0  0  0  0  0  0  0  0  0
   32.3716   35.3426   62.0620 C   0  0  0  0  0  0  0  0  0  0  0  0
   31.4342   36.0414   61.3279 C   0  0  0  0  0  0  0  0  0  0  0  0
   30.6357   36.9803   61.9637 C   0  0  0  0  0  0  0  0  0  0  0  0
   30.8086   37.1809   63.3369 C   0  0  0  0  0  0  0  0  0  0  0  0
   30.0177   38.2053   64.0271 C   0  0  0  0  0  0  0  0  0  0  0  0
   29.4977   38.0964   65.2340 C   0  0  0  0  0  0  0  0  0  0  0  0
   29.6113   36.9348   66.1208 C   0  0  0  0  0  0  0  0  0  0  0  0
   28.5201   36.5566   66.9099 C   0  0  0  0  0  0  0  0  0  0  0  0
   28.6811   35.5055   67.8001 C   0  0  0  0  0  0  0  0  0  0  0  0
   29.9031   34.8686   67.8819 C   0  0  0  0  0  0  0  0  0  0  0  0
   30.9134   35.2287   67.1108 N   0  0  0  0  0  0  0  0  0  0  0  0
   30.8064   36.2103   66.2297 C   0  0  0  0  0  0  0  0  0  0  0  0
   33.0526   38.9158   65.1364 H   0  0  0  0  0  0  0  0  0  0  0  0
   34.1232   38.7810   66.5521 H   0  0  0  0  0  0  0  0  0  0  0  0
   32.3564   38.7758   66.7687 H   0  0  0  0  0  0  0  0  0  0  0  0
   33.9805   36.6249   65.3357 H   0  0  0  0  0  0  0  0  0  0  0  0
   33.2843   36.4849   66.9678 H   0  0  0  0  0  0  0  0  0  0  0  0
   33.0088   34.6265   61.5645 H   0  0  0  0  0  0  0  0  0  0  0  0
   31.3234   35.8584   60.2692 H   0  0  0  0  0  0  0  0  0  0  0  0
   29.8980   37.5435   61.4113 H   0  0  0  0  0  0  0  0  0  0  0  0
   29.8454   39.1317   63.4994 H   0  0  0  0  0  0  0  0  0  0  0  0
   28.9354   38.9413   65.6031 H   0  0  0  0  0  0  0  0  0  0  0  0
   27.5740   37.0709   66.8277 H   0  0  0  0  0  0  0  0  0  0  0  0
   27.8581   35.1879   68.4231 H   0  0  0  0  0  0  0  0  0  0  0  0
   30.0356   34.0627   68.5886 H   0  0  0  0  0  0  0  0  0  0  0  0
  1  2  1  0  0  0  0
  1 18  1  0  0  0  0
  1 19  1  0  0  0  0
  1 20  1  0  0  0  0
  2  3  1  0  0  0  0
  2 21  1  0  0  0  0
  2 22  1  0  0  0  0
  3 17  1  0  0  0  0
  3  4  1  0  0  0  0
  4  9  2  0  0  0  0
  4  5  1  0  0  0  0
  5  6  2  0  0  0  0
  6  7  1  0  0  0  0
  6 23  1  0  0  0  0
  7  8  2  0  0  0  0
  7 24  1  0  0  0  0
  8  9  1  0  0  0  0
  8 25  1  0  0  0  0
  9 10  1  0  0  0  0
 10 11  2  0  0  0  0
 10 26  1  0  0  0  0
 11 12  1  0  0  0  0
 11 27  1  0  0  0  0
 12 17  2  0  0  0  0
 12 13  1  0  0  0  0
 13 14  2  0  0  0  0
 13 28  1  0  0  0  0
 14 15  1  0  0  0  0
 14 29  1  0  0  0  0
 15 16  2  0  0  0  0
 15 30  1  0  0  0  0
 16 17  1  0  0  0  0
M  END
$$$$
