ZINC000000043473      none
 OpenBabel11202420153D

 30 30  0  0  0  0  0  0  0  0999 V2000
   31.9256   36.3890   60.6250 C   0  0  0  0  0  0  0  0  0  0  0  0
   32.3282   36.0056   59.2244 C   0  0  0  0  0  0  0  0  0  0  0  0
   32.8551   36.9442   58.3794 N   0  0  0  0  0  0  0  0  0  0  0  0
   32.9682   37.8574   58.6863 H   0  0  0  0  0  0  0  0  0  0  0  0
   33.2172   36.6124   57.1269 C   0  0  0  0  0  0  0  0  0  0  0  0
   33.6837   37.4620   56.3929 O   0  0  0  0  0  0  0  0  0  0  0  0
   33.0710   35.3529   56.6751 N   0  0  0  0  0  0  0  0  0  0  0  0
   33.4731   35.0173   55.3069 C   0  0  0  0  0  0  0  0  0  0  0  0
   34.0212   36.2672   54.6153 C   0  0  0  0  0  0  0  0  0  0  0  0
   32.2610   34.4960   54.5324 C   0  0  0  0  0  0  0  0  0  0  0  0
   34.5572   33.9382   55.3442 C   0  0  0  0  0  0  0  0  0  0  0  0
   32.5506   34.4002   57.4748 C   0  0  0  0  0  0  0  0  0  0  0  0
   32.4132   33.2616   57.0653 O   0  0  0  0  0  0  0  0  0  0  0  0
   32.1704   34.7345   58.7970 C   0  0  0  0  0  0  0  0  0  0  0  0
   31.5914   33.6874   59.7130 C   0  0  0  0  0  0  0  0  0  0  0  0
   32.1266   37.4484   60.7839 H   0  0  0  0  0  0  0  0  0  0  0  0
   30.8615   36.1963   60.7628 H   0  0  0  0  0  0  0  0  0  0  0  0
   32.4973   35.7993   61.3416 H   0  0  0  0  0  0  0  0  0  0  0  0
   33.2488   37.0359   54.5888 H   0  0  0  0  0  0  0  0  0  0  0  0
   34.3204   36.0174   53.5974 H   0  0  0  0  0  0  0  0  0  0  0  0
   34.8847   36.6386   55.1671 H   0  0  0  0  0  0  0  0  0  0  0  0
   32.5602   34.2462   53.5145 H   0  0  0  0  0  0  0  0  0  0  0  0
   31.8706   33.6055   55.0252 H   0  0  0  0  0  0  0  0  0  0  0  0
   31.4888   35.2646   54.5059 H   0  0  0  0  0  0  0  0  0  0  0  0
   35.4207   34.3097   55.8960 H   0  0  0  0  0  0  0  0  0  0  0  0
   34.1667   33.0478   55.8370 H   0  0  0  0  0  0  0  0  0  0  0  0
   34.8564   33.6885   54.3263 H   0  0  0  0  0  0  0  0  0  0  0  0
   30.5076   33.6644   59.5996 H   0  0  0  0  0  0  0  0  0  0  0  0
   32.0043   32.7118   59.4564 H   0  0  0  0  0  0  0  0  0  0  0  0
   31.8438   33.9283   60.7457 H   0  0  0  0  0  0  0  0  0  0  0  0
  1  2  1  0  0  0  0
  1 16  1  0  0  0  0
  1 17  1  0  0  0  0
  1 18  1  0  0  0  0
  2 14  2  0  0  0  0
  2  3  1  0  0  0  0
  3  4  1  0  0  0  0
  3  5  1  0  0  0  0
  5  6  2  0  0  0  0
  5  7  1  0  0  0  0
  7  8  1  0  0  0  0
  7 12  1  0  0  0  0
  8  9  1  0  0  0  0
  8 10  1  0  0  0  0
  8 11  1  0  0  0  0
  9 19  1  0  0  0  0
  9 20  1  0  0  0  0
  9 21  1  0  0  0  0
 10 22  1  0  0  0  0
 10 23  1  0  0  0  0
 10 24  1  0  0  0  0
 11 25  1  0  0  0  0
 11 26  1  0  0  0  0
 11 27  1  0  0  0  0
 12 13  2  0  0  0  0
 12 14  1  0  0  0  0
 14 15  1  0  0  0  0
 15 28  1  0  0  0  0
 15 29  1  0  0  0  0
 15 30  1  0  0  0  0
M  END
$$$$
