ZINC000000001979      none
 OpenBabel11202420153D

 30 31  0  0  0  0  0  0  0  0999 V2000
   29.8725   38.7935   63.2458 C   0  0  0  0  0  0  0  0  0  0  0  0
   30.0047   37.2855   63.4680 C   0  0  0  0  0  0  0  0  0  0  0  0
   30.6432   36.6424   62.2354 C   0  0  0  0  0  0  0  0  0  0  0  0
   30.7625   35.1561   62.4542 C   0  0  0  0  0  0  0  0  0  0  0  0
   30.3210   34.5942   63.6375 C   0  0  0  0  0  0  0  0  0  0  0  0
   30.4260   33.2302   63.8364 C   0  0  0  0  0  0  0  0  0  0  0  0
   30.9822   32.4295   62.8554 C   0  0  0  0  0  0  0  0  0  0  0  0
   31.4283   32.9923   61.6750 C   0  0  0  0  0  0  0  0  0  0  0  0
   31.3185   34.3556   61.4741 C   0  0  0  0  0  0  0  0  0  0  0  0
   32.0128   37.2207   62.0271 C   0  0  0  0  0  0  0  0  0  0  0  0
   32.7215   37.4118   62.9926 O   0  0  0  0  0  0  0  0  0  0  0  0
   32.4772   37.5319   60.8128 N   0  0  0  0  0  0  0  0  0  0  0  0
   31.7166   37.3289   59.5899 C   0  0  0  0  0  0  0  0  0  0  0  0
   30.2888   37.2184   59.8435 N   0  0  0  0  0  0  0  0  0  0  0  0
   29.7770   36.8995   61.0365 C   0  0  0  0  0  0  0  0  0  0  0  0
   28.5729   36.8154   61.1544 O   0  0  0  0  0  0  0  0  0  0  0  0
   29.2457   38.9786   62.3735 H   0  0  0  0  0  0  0  0  0  0  0  0
   30.8601   39.2245   63.0815 H   0  0  0  0  0  0  0  0  0  0  0  0
   29.4176   39.2517   64.1241 H   0  0  0  0  0  0  0  0  0  0  0  0
   30.6316   37.1004   64.3403 H   0  0  0  0  0  0  0  0  0  0  0  0
   29.0172   36.8544   63.6323 H   0  0  0  0  0  0  0  0  0  0  0  0
   29.8908   35.2202   64.4052 H   0  0  0  0  0  0  0  0  0  0  0  0
   30.0778   32.7906   64.7593 H   0  0  0  0  0  0  0  0  0  0  0  0
   31.0681   31.3646   63.0133 H   0  0  0  0  0  0  0  0  0  0  0  0
   31.8629   32.3669   60.9093 H   0  0  0  0  0  0  0  0  0  0  0  0
   31.6674   34.7951   60.5513 H   0  0  0  0  0  0  0  0  0  0  0  0
   33.3666   37.9130   60.7439 H   0  0  0  0  0  0  0  0  0  0  0  0
   32.0618   36.4151   59.1062 H   0  0  0  0  0  0  0  0  0  0  0  0
   31.8931   38.1712   58.9210 H   0  0  0  0  0  0  0  0  0  0  0  0
   29.6767   37.3843   59.1095 H   0  0  0  0  0  0  0  0  0  0  0  0
  1  2  1  0  0  0  0
  1 17  1  0  0  0  0
  1 18  1  0  0  0  0
  1 19  1  0  0  0  0
  2  3  1  0  0  0  0
  2 20  1  0  0  0  0
  2 21  1  0  0  0  0
  3 15  1  0  0  0  0
  3  4  1  0  0  0  0
  3 10  1  0  0  0  0
  4  9  2  0  0  0  0
  4  5  1  0  0  0  0
  5  6  2  0  0  0  0
  5 22  1  0  0  0  0
  6  7  1  0  0  0  0
  6 23  1  0  0  0  0
  7  8  2  0  0  0  0
  7 24  1  0  0  0  0
  8  9  1  0  0  0  0
  8 25  1  0  0  0  0
  9 26  1  0  0  0  0
 10 11  2  0  0  0  0
 10 12  1  0  0  0  0
 12 13  1  0  0  0  0
 12 27  1  0  0  0  0
 13 14  1  0  0  0  0
 13 28  1  0  0  0  0
 13 29  1  0  0  0  0
 14 15  1  0  0  0  0
 14 30  1  0  0  0  0
 15 16  2  0  0  0  0
M  END
$$$$
