ZINC000000022921      none
 OpenBabel11202420153D

 37 39  0  0  1  0  0  0  0  0999 V2000
   32.0609   36.3428   64.9384 C   0  0  0  0  0  0  0  0  0  0  0  0
   31.0377   36.0476   63.8720 C   0  0  0  0  0  0  0  0  0  0  0  0
   30.2138   35.1750   64.0473 O   0  0  0  0  0  0  0  0  0  0  0  0
   31.0384   36.7532   62.7237 N   0  0  0  0  0  0  0  0  0  0  0  0
   30.0437   36.4661   61.6871 C   0  0  0  0  0  0  0  0  0  0  0  0
   30.6353   36.7806   60.3116 C   0  0  0  0  0  0  0  0  0  0  0  0
   31.8767   35.9166   60.0806 C   0  0  1  0  0  0  0  0  0  0  0  0
   32.6260   36.1201   60.8456 H   0  0  0  0  0  0  0  0  0  0  0  0
   31.4987   34.4202   60.0860 C   0  0  0  0  0  0  0  0  0  0  0  0
   32.4681   33.8297   59.0403 C   0  0  0  0  0  0  0  0  0  0  0  0
   32.7886   34.9758   58.1054 C   0  0  0  0  0  0  0  0  0  0  0  0
   33.3339   34.9735   56.8325 C   0  0  0  0  0  0  0  0  0  0  0  0
   33.5379   36.1566   56.1552 C   0  0  0  0  0  0  0  0  0  0  0  0
   33.1970   37.3697   56.7483 C   0  0  0  0  0  0  0  0  0  0  0  0
   32.6583   37.3614   58.0271 C   0  0  0  0  0  0  0  0  0  0  0  0
   32.4486   36.1764   58.7030 C   0  0  0  0  0  0  0  0  0  0  0  0
   32.4135   38.8065   58.4165 C   0  0  0  0  0  0  0  0  0  0  0  0
   33.2489   39.5679   57.3600 C   0  0  0  0  0  0  0  0  0  0  0  0
   33.3000   38.6381   56.2644 O   0  0  0  0  0  0  0  0  0  0  0  0
   31.6699   37.1009   65.6171 H   0  0  0  0  0  0  0  0  0  0  0  0
   32.2772   35.4319   65.4966 H   0  0  0  0  0  0  0  0  0  0  0  0
   32.9757   36.7092   64.4726 H   0  0  0  0  0  0  0  0  0  0  0  0
   31.6973   37.4510   62.5836 H   0  0  0  0  0  0  0  0  0  0  0  0
   29.1594   37.0816   61.8516 H   0  0  0  0  0  0  0  0  0  0  0  0
   29.7667   35.4127   61.7312 H   0  0  0  0  0  0  0  0  0  0  0  0
   30.9124   37.8339   60.2676 H   0  0  0  0  0  0  0  0  0  0  0  0
   29.8952   36.5671   59.5403 H   0  0  0  0  0  0  0  0  0  0  0  0
   31.6729   33.9802   61.0679 H   0  0  0  0  0  0  0  0  0  0  0  0
   30.4629   34.2812   59.7762 H   0  0  0  0  0  0  0  0  0  0  0  0
   31.9866   33.0190   58.4935 H   0  0  0  0  0  0  0  0  0  0  0  0
   33.3766   33.4713   59.5245 H   0  0  0  0  0  0  0  0  0  0  0  0
   33.6021   34.0368   56.3666 H   0  0  0  0  0  0  0  0  0  0  0  0
   33.9632   36.1427   55.1626 H   0  0  0  0  0  0  0  0  0  0  0  0
   32.7820   39.0065   59.4226 H   0  0  0  0  0  0  0  0  0  0  0  0
   31.3565   39.0595   58.3333 H   0  0  0  0  0  0  0  0  0  0  0  0
   34.2503   39.7762   57.7367 H   0  0  0  0  0  0  0  0  0  0  0  0
   32.7480   40.4888   57.0620 H   0  0  0  0  0  0  0  0  0  0  0  0
  1  2  1  0  0  0  0
  1 20  1  0  0  0  0
  1 21  1  0  0  0  0
  1 22  1  0  0  0  0
  2  3  2  0  0  0  0
  2  4  1  0  0  0  0
  4  5  1  0  0  0  0
  4 23  1  0  0  0  0
  5  6  1  0  0  0  0
  5 24  1  0  0  0  0
  5 25  1  0  0  0  0
  6  7  1  0  0  0  0
  6 26  1  0  0  0  0
  6 27  1  0  0  0  0
  7  8  1  1  0  0  0
  7 16  1  0  0  0  0
  7  9  1  0  0  0  0
  9 10  1  0  0  0  0
  9 28  1  0  0  0  0
  9 29  1  0  0  0  0
 10 11  1  0  0  0  0
 10 30  1  0  0  0  0
 10 31  1  0  0  0  0
 11 16  2  0  0  0  0
 11 12  1  0  0  0  0
 12 13  2  0  0  0  0
 12 32  1  0  0  0  0
 13 14  1  0  0  0  0
 13 33  1  0  0  0  0
 14 19  1  0  0  0  0
 14 15  2  0  0  0  0
 15 16  1  0  0  0  0
 15 17  1  0  0  0  0
 17 18  1  0  0  0  0
 17 34  1  0  0  0  0
 17 35  1  0  0  0  0
 18 19  1  0  0  0  0
 18 36  1  0  0  0  0
 18 37  1  0  0  0  0
M  END
$$$$
