ZINC000000029156      none
 OpenBabel11202420163D

 32 33  0  0  0  0  0  0  0  0999 V2000
   31.9891   36.8859   59.1369 C   0  0  0  0  0  0  0  0  0  0  0  0
   31.9989   36.1937   60.5013 C   0  0  0  0  0  0  0  0  0  0  0  0
   30.5741   35.7748   60.8708 C   0  0  0  0  0  0  0  0  0  0  0  0
   30.5926   35.0518   62.2212 C   0  0  0  0  0  0  0  0  0  0  0  0
   31.2429   35.9192   63.2130 N   0  0  0  0  0  0  0  0  0  0  0  0
   30.6247   36.2204   64.3720 C   0  0  0  0  0  0  0  0  0  0  0  0
   29.5186   35.7734   64.6051 O   0  0  0  0  0  0  0  0  0  0  0  0
   31.2916   37.0943   65.3598 C   0  0  0  0  0  0  0  0  0  0  0  0
   32.1085   36.5407   66.3475 C   0  0  0  0  0  0  0  0  0  0  0  0
   32.7274   37.3618   67.2664 C   0  0  0  0  0  0  0  0  0  0  0  0
   32.5411   38.7321   67.2117 C   0  0  0  0  0  0  0  0  0  0  0  0
   31.7382   39.2886   66.2329 C   0  0  0  0  0  0  0  0  0  0  0  0
   31.1075   38.4779   65.3097 C   0  0  0  0  0  0  0  0  0  0  0  0
   30.0035   39.2397   63.9767 Br  0  0  0  0  0  0  0  0  0  0  0  0
   32.5774   36.4565   62.9145 C   0  0  0  0  0  0  0  0  0  0  0  0
   32.5389   37.1593   61.5587 C   0  0  0  0  0  0  0  0  0  0  0  0
   31.3510   37.7684   59.1818 H   0  0  0  0  0  0  0  0  0  0  0  0
   33.0039   37.1844   58.8736 H   0  0  0  0  0  0  0  0  0  0  0  0
   31.6056   36.1982   58.3832 H   0  0  0  0  0  0  0  0  0  0  0  0
   32.6367   35.3110   60.4561 H   0  0  0  0  0  0  0  0  0  0  0  0
   30.1816   35.1055   60.1051 H   0  0  0  0  0  0  0  0  0  0  0  0
   29.9408   36.6592   60.9402 H   0  0  0  0  0  0  0  0  0  0  0  0
   31.1503   34.1199   62.1292 H   0  0  0  0  0  0  0  0  0  0  0  0
   29.5718   34.8370   62.5371 H   0  0  0  0  0  0  0  0  0  0  0  0
   32.2554   35.4716   66.3915 H   0  0  0  0  0  0  0  0  0  0  0  0
   33.3592   36.9343   68.0311 H   0  0  0  0  0  0  0  0  0  0  0  0
   33.0284   39.3702   67.9340 H   0  0  0  0  0  0  0  0  0  0  0  0
   31.6009   40.3591   66.1928 H   0  0  0  0  0  0  0  0  0  0  0  0
   32.8648   37.1704   63.6865 H   0  0  0  0  0  0  0  0  0  0  0  0
   33.3003   35.6415   62.8802 H   0  0  0  0  0  0  0  0  0  0  0  0
   33.5450   37.4754   61.2828 H   0  0  0  0  0  0  0  0  0  0  0  0
   31.8876   38.0310   61.6219 H   0  0  0  0  0  0  0  0  0  0  0  0
  1  2  1  0  0  0  0
  1 17  1  0  0  0  0
  1 18  1  0  0  0  0
  1 19  1  0  0  0  0
  2 16  1  0  0  0  0
  2  3  1  0  0  0  0
  2 20  1  0  0  0  0
  3  4  1  0  0  0  0
  3 21  1  0  0  0  0
  3 22  1  0  0  0  0
  4  5  1  0  0  0  0
  4 23  1  0  0  0  0
  4 24  1  0  0  0  0
  5  6  1  0  0  0  0
  5 15  1  0  0  0  0
  6  7  2  0  0  0  0
  6  8  1  0  0  0  0
  8 13  2  0  0  0  0
  8  9  1  0  0  0  0
  9 10  2  0  0  0  0
  9 25  1  0  0  0  0
 10 11  1  0  0  0  0
 10 26  1  0  0  0  0
 11 12  2  0  0  0  0
 11 27  1  0  0  0  0
 12 13  1  0  0  0  0
 12 28  1  0  0  0  0
 13 14  1  0  0  0  0
 15 16  1  0  0  0  0
 15 29  1  0  0  0  0
 15 30  1  0  0  0  0
 16 31  1  0  0  0  0
 16 32  1  0  0  0  0
M  END
$$$$
