ZINC000000050386      none
 OpenBabel11202420153D

 45 48  0  0  1  0  0  0  0  0999 V2000
   28.8811   38.1007   62.5072 C   0  0  0  0  0  0  0  0  0  0  0  0
   29.7406   36.8847   62.1556 C   0  0  1  0  0  0  0  0  0  0  0  0
   29.1160   35.9920   62.1277 H   0  0  0  0  0  0  0  0  0  0  0  0
   30.3952   37.0950   60.7890 C   0  0  1  0  0  0  0  0  0  0  0  0
   29.6258   37.2539   60.0334 H   0  0  0  0  0  0  0  0  0  0  0  0
   31.3495   38.2919   60.8408 C   0  0  1  0  0  0  0  0  0  0  0  0
   30.7846   39.2151   60.9705 H   0  0  0  0  0  0  0  0  0  0  0  0
   32.2784   38.1294   61.9169 O   0  0  0  0  0  0  0  0  0  0  0  0
   31.7172   37.9660   63.2030 C   0  0  0  0  0  0  0  0  0  0  0  0
   30.8387   36.7102   63.2102 C   0  0  1  0  0  0  0  0  0  0  0  0
   30.2035   36.5134   64.5882 C   0  0  0  0  0  0  0  0  0  0  0  0
   29.3757   35.3488   64.5691 O   0  0  0  0  0  0  0  0  0  0  0  0
   31.6950   35.4920   62.8587 C   0  0  2  0  0  0  0  0  0  0  0  0
   31.0698   34.5991   62.8548 H   0  0  0  0  0  0  0  0  0  0  0  0
   32.8013   35.3327   63.9036 C   0  0  0  0  0  0  0  0  0  0  0  0
   32.3250   35.6775   61.4757 C   0  0  0  0  0  0  0  0  0  0  0  0
   31.2178   35.8488   60.4361 C   0  0  1  0  0  0  0  0  0  0  0  0
   30.3043   34.6217   60.4600 C   0  0  0  0  0  0  0  0  0  0  0  0
   31.7642   36.0057   59.1318 O   0  0  0  0  0  0  0  0  0  0  0  0
   32.2995   37.2015   58.7777 C   0  0  0  0  0  0  0  0  0  0  0  0
   33.0347   37.2758   57.5976 C   0  0  0  0  0  0  0  0  0  0  0  0
   33.5908   38.4742   57.2007 C   0  0  0  0  0  0  0  0  0  0  0  0
   33.4128   39.6094   57.9700 C   0  0  0  0  0  0  0  0  0  0  0  0
   32.6834   39.5407   59.1417 C   0  0  0  0  0  0  0  0  0  0  0  0
   32.1314   38.3387   59.5469 C   0  0  0  0  0  0  0  0  0  0  0  0
   29.5064   38.9932   62.5306 H   0  0  0  0  0  0  0  0  0  0  0  0
   28.1006   38.2233   61.7563 H   0  0  0  0  0  0  0  0  0  0  0  0
   28.4238   37.9518   63.4854 H   0  0  0  0  0  0  0  0  0  0  0  0
   31.1087   38.8387   63.4402 H   0  0  0  0  0  0  0  0  0  0  0  0
   32.5113   37.8605   63.9421 H   0  0  0  0  0  0  0  0  0  0  0  0
   30.9874   36.3898   65.3354 H   0  0  0  0  0  0  0  0  0  0  0  0
   29.5985   37.3852   64.8371 H   0  0  0  0  0  0  0  0  0  0  0  0
   29.8487   34.5334   64.3540 H   0  0  0  0  0  0  0  0  0  0  0  0
   33.4247   36.2268   63.9119 H   0  0  0  0  0  0  0  0  0  0  0  0
   32.3542   35.1924   64.8877 H   0  0  0  0  0  0  0  0  0  0  0  0
   33.4133   34.4655   63.6555 H   0  0  0  0  0  0  0  0  0  0  0  0
   32.9242   34.8012   61.2282 H   0  0  0  0  0  0  0  0  0  0  0  0
   32.9602   36.5632   61.4803 H   0  0  0  0  0  0  0  0  0  0  0  0
   30.8807   33.7346   60.1975 H   0  0  0  0  0  0  0  0  0  0  0  0
   29.8851   34.5003   61.4588 H   0  0  0  0  0  0  0  0  0  0  0  0
   29.4965   34.7560   59.7407 H   0  0  0  0  0  0  0  0  0  0  0  0
   33.1734   36.3916   56.9931 H   0  0  0  0  0  0  0  0  0  0  0  0
   34.1634   38.5265   56.2865 H   0  0  0  0  0  0  0  0  0  0  0  0
   33.8429   40.5488   57.6552 H   0  0  0  0  0  0  0  0  0  0  0  0
   32.5444   40.4273   59.7427 H   0  0  0  0  0  0  0  0  0  0  0  0
  1  2  1  0  0  0  0
  1 26  1  0  0  0  0
  1 27  1  0  0  0  0
  1 28  1  0  0  0  0
  2  3  1  6  0  0  0
  2 10  1  0  0  0  0
  2  4  1  0  0  0  0
  4  5  1  6  0  0  0
  4 17  1  0  0  0  0
  4  6  1  0  0  0  0
  6  7  1  1  0  0  0
  6 25  1  0  0  0  0
  6  8  1  0  0  0  0
  8  9  1  0  0  0  0
  9 10  1  0  0  0  0
  9 29  1  0  0  0  0
  9 30  1  0  0  0  0
 10 11  1  1  0  0  0
 10 13  1  0  0  0  0
 11 12  1  0  0  0  0
 11 31  1  0  0  0  0
 11 32  1  0  0  0  0
 12 33  1  0  0  0  0
 13 14  1  6  0  0  0
 13 15  1  0  0  0  0
 13 16  1  0  0  0  0
 15 34  1  0  0  0  0
 15 35  1  0  0  0  0
 15 36  1  0  0  0  0
 16 17  1  0  0  0  0
 16 37  1  0  0  0  0
 16 38  1  0  0  0  0
 17 18  1  1  0  0  0
 17 19  1  0  0  0  0
 18 39  1  0  0  0  0
 18 40  1  0  0  0  0
 18 41  1  0  0  0  0
 19 20  1  0  0  0  0
 20 25  2  0  0  0  0
 20 21  1  0  0  0  0
 21 22  2  0  0  0  0
 21 42  1  0  0  0  0
 22 23  1  0  0  0  0
 22 43  1  0  0  0  0
 23 24  2  0  0  0  0
 23 44  1  0  0  0  0
 24 25  1  0  0  0  0
 24 45  1  0  0  0  0
M  END
$$$$
