ZINC000000027719      none
 OpenBabel11202420153D

 36 39  0  0  0  0  0  0  0  0999 V2000
   33.0291   37.7867   60.2960 O   0  0  0  0  0  0  0  0  0  0  0  0
   32.3036   37.1191   61.0078 C   0  0  0  0  0  0  0  0  0  0  0  0
   31.9898   37.5749   62.3759 C   0  0  0  0  0  0  0  0  0  0  0  0
   32.8039   37.1933   63.4453 C   0  0  0  0  0  0  0  0  0  0  0  0
   32.5122   37.6236   64.7211 C   0  0  0  0  0  0  0  0  0  0  0  0
   31.4052   38.4298   64.9506 C   0  0  0  0  0  0  0  0  0  0  0  0
   30.5879   38.8144   63.8870 C   0  0  0  0  0  0  0  0  0  0  0  0
   30.8778   38.3895   62.6050 C   0  0  0  0  0  0  0  0  0  0  0  0
   29.5826   39.6005   64.3723 O   0  0  0  0  0  0  0  0  0  0  0  0
   29.5568   39.3576   65.7912 C   0  0  0  0  0  0  0  0  0  0  0  0
   30.9104   38.9754   66.0982 O   0  0  0  0  0  0  0  0  0  0  0  0
   31.7861   35.9630   60.5474 N   0  0  0  0  0  0  0  0  0  0  0  0
   30.9035   35.1499   61.3950 C   0  0  0  0  0  0  0  0  0  0  0  0
   31.3413   33.6857   61.2587 C   0  0  0  0  0  0  0  0  0  0  0  0
   31.1388   33.2426   59.8098 C   0  0  0  0  0  0  0  0  0  0  0  0
   31.7873   34.2191   58.8644 C   0  0  0  0  0  0  0  0  0  0  0  0
   32.0939   33.8043   57.5790 C   0  0  0  0  0  0  0  0  0  0  0  0
   32.6863   34.6773   56.6875 C   0  0  0  0  0  0  0  0  0  0  0  0
   32.9767   35.9734   57.0731 C   0  0  0  0  0  0  0  0  0  0  0  0
   32.6754   36.3946   58.3527 C   0  0  0  0  0  0  0  0  0  0  0  0
   32.0764   35.5195   59.2505 C   0  0  0  0  0  0  0  0  0  0  0  0
   33.6641   36.5637   63.2713 H   0  0  0  0  0  0  0  0  0  0  0  0
   33.1456   37.3316   65.5456 H   0  0  0  0  0  0  0  0  0  0  0  0
   30.2463   38.6867   61.7810 H   0  0  0  0  0  0  0  0  0  0  0  0
   28.8670   38.5475   66.0285 H   0  0  0  0  0  0  0  0  0  0  0  0
   29.2834   40.2647   66.3301 H   0  0  0  0  0  0  0  0  0  0  0  0
   30.9943   35.4672   62.4339 H   0  0  0  0  0  0  0  0  0  0  0  0
   29.8706   35.2596   61.0645 H   0  0  0  0  0  0  0  0  0  0  0  0
   32.3941   33.5930   61.5252 H   0  0  0  0  0  0  0  0  0  0  0  0
   30.7407   33.0618   61.9206 H   0  0  0  0  0  0  0  0  0  0  0  0
   31.5829   32.2571   59.6696 H   0  0  0  0  0  0  0  0  0  0  0  0
   30.0713   33.1893   59.5957 H   0  0  0  0  0  0  0  0  0  0  0  0
   31.8684   32.7936   57.2722 H   0  0  0  0  0  0  0  0  0  0  0  0
   32.9230   34.3472   55.6868 H   0  0  0  0  0  0  0  0  0  0  0  0
   33.4388   36.6549   56.3743 H   0  0  0  0  0  0  0  0  0  0  0  0
   32.9016   37.4063   58.6551 H   0  0  0  0  0  0  0  0  0  0  0  0
  1  2  2  0  0  0  0
  2  3  1  0  0  0  0
  2 12  1  0  0  0  0
  3  8  2  0  0  0  0
  3  4  1  0  0  0  0
  4  5  2  0  0  0  0
  4 22  1  0  0  0  0
  5  6  1  0  0  0  0
  5 23  1  0  0  0  0
  6 11  1  0  0  0  0
  6  7  2  0  0  0  0
  7  8  1  0  0  0  0
  7  9  1  0  0  0  0
  8 24  1  0  0  0  0
  9 10  1  0  0  0  0
 10 11  1  0  0  0  0
 10 25  1  0  0  0  0
 10 26  1  0  0  0  0
 12 21  1  0  0  0  0
 12 13  1  0  0  0  0
 13 14  1  0  0  0  0
 13 27  1  0  0  0  0
 13 28  1  0  0  0  0
 14 15  1  0  0  0  0
 14 29  1  0  0  0  0
 14 30  1  0  0  0  0
 15 16  1  0  0  0  0
 15 31  1  0  0  0  0
 15 32  1  0  0  0  0
 16 21  2  0  0  0  0
 16 17  1  0  0  0  0
 17 18  2  0  0  0  0
 17 33  1  0  0  0  0
 18 19  1  0  0  0  0
 18 34  1  0  0  0  0
 19 20  2  0  0  0  0
 19 35  1  0  0  0  0
 20 21  1  0  0  0  0
 20 36  1  0  0  0  0
M  END
$$$$
