ZINC000000044344      none
 OpenBabel11202420153D

 40 42  0  0  0  0  0  0  0  0999 V2000
   34.6106   31.7338   54.6168 C   0  0  0  0  0  0  0  0  0  0  0  0
   33.8834   33.0177   55.0213 C   0  0  0  0  0  0  0  0  0  0  0  0
   34.8006   33.8669   55.9034 C   0  0  0  0  0  0  0  0  0  0  0  0
   34.0843   35.1317   56.3019 C   0  0  0  0  0  0  0  0  0  0  0  0
   33.3432   35.1590   57.4474 C   0  0  0  0  0  0  0  0  0  0  0  0
   32.6752   36.3321   57.8234 C   0  0  0  0  0  0  0  0  0  0  0  0
   31.8786   36.3639   59.0525 C   0  0  0  0  0  0  0  0  0  0  0  0
   31.3395   35.3530   59.4523 O   0  0  0  0  0  0  0  0  0  0  0  0
   31.7284   37.6520   59.8200 C   0  0  0  0  0  0  0  0  0  0  0  0
   31.5557   37.3463   61.2855 C   0  0  0  0  0  0  0  0  0  0  0  0
   32.5220   37.2379   62.1170 N   0  0  0  0  0  0  0  0  0  0  0  0
   32.2197   36.9649   63.4005 C   0  0  0  0  0  0  0  0  0  0  0  0
   33.0726   36.7979   64.5103 C   0  0  0  0  0  0  0  0  0  0  0  0
   32.5581   36.5155   65.7391 C   0  0  0  0  0  0  0  0  0  0  0  0
   31.1885   36.3876   65.9234 C   0  0  0  0  0  0  0  0  0  0  0  0
   30.3315   36.5458   64.8578 C   0  0  0  0  0  0  0  0  0  0  0  0
   30.8399   36.8346   63.5931 C   0  0  0  0  0  0  0  0  0  0  0  0
   30.0471   37.0939   62.0425 S   0  0  0  0  0  0  0  0  0  0  0  0
   32.7731   37.4789   57.0146 C   0  0  0  0  0  0  0  0  0  0  0  0
   32.1308   38.6197   57.3680 O   0  0  0  0  0  0  0  0  0  0  0  0
   33.5284   37.4357   55.8559 C   0  0  0  0  0  0  0  0  0  0  0  0
   34.1873   36.2666   55.5020 C   0  0  0  0  0  0  0  0  0  0  0  0
   34.9316   36.2280   54.3683 O   0  0  0  0  0  0  0  0  0  0  0  0
   33.9570   31.1287   53.9883 H   0  0  0  0  0  0  0  0  0  0  0  0
   35.5143   31.9873   54.0629 H   0  0  0  0  0  0  0  0  0  0  0  0
   34.8781   31.1707   55.5108 H   0  0  0  0  0  0  0  0  0  0  0  0
   32.9794   32.7641   55.5752 H   0  0  0  0  0  0  0  0  0  0  0  0
   33.6157   33.5807   54.1272 H   0  0  0  0  0  0  0  0  0  0  0  0
   35.7045   34.1206   55.3495 H   0  0  0  0  0  0  0  0  0  0  0  0
   35.0683   33.3039   56.7975 H   0  0  0  0  0  0  0  0  0  0  0  0
   33.2710   34.2757   58.0646 H   0  0  0  0  0  0  0  0  0  0  0  0
   32.6188   38.2647   59.6791 H   0  0  0  0  0  0  0  0  0  0  0  0
   30.8543   38.1921   59.4561 H   0  0  0  0  0  0  0  0  0  0  0  0
   34.1410   36.8943   64.3851 H   0  0  0  0  0  0  0  0  0  0  0  0
   33.2237   36.3899   66.5804 H   0  0  0  0  0  0  0  0  0  0  0  0
   30.7946   36.1641   66.9039 H   0  0  0  0  0  0  0  0  0  0  0  0
   29.2658   36.4458   65.0020 H   0  0  0  0  0  0  0  0  0  0  0  0
   32.2592   39.3513   56.7488 H   0  0  0  0  0  0  0  0  0  0  0  0
   33.6087   38.3120   55.2299 H   0  0  0  0  0  0  0  0  0  0  0  0
   34.9447   37.0614   53.8780 H   0  0  0  0  0  0  0  0  0  0  0  0
  1  2  1  0  0  0  0
  1 24  1  0  0  0  0
  1 25  1  0  0  0  0
  1 26  1  0  0  0  0
  2  3  1  0  0  0  0
  2 27  1  0  0  0  0
  2 28  1  0  0  0  0
  3  4  1  0  0  0  0
  3 29  1  0  0  0  0
  3 30  1  0  0  0  0
  4 22  2  0  0  0  0
  4  5  1  0  0  0  0
  5  6  2  0  0  0  0
  5 31  1  0  0  0  0
  6  7  1  0  0  0  0
  6 19  1  0  0  0  0
  7  8  2  0  0  0  0
  7  9  1  0  0  0  0
  9 10  1  0  0  0  0
  9 32  1  0  0  0  0
  9 33  1  0  0  0  0
 10 18  1  0  0  0  0
 10 11  2  0  0  0  0
 11 12  1  0  0  0  0
 12 17  2  0  0  0  0
 12 13  1  0  0  0  0
 13 14  2  0  0  0  0
 13 34  1  0  0  0  0
 14 15  1  0  0  0  0
 14 35  1  0  0  0  0
 15 16  2  0  0  0  0
 15 36  1  0  0  0  0
 16 17  1  0  0  0  0
 16 37  1  0  0  0  0
 17 18  1  0  0  0  0
 19 20  1  0  0  0  0
 19 21  2  0  0  0  0
 20 38  1  0  0  0  0
 21 22  1  0  0  0  0
 21 39  1  0  0  0  0
 22 23  1  0  0  0  0
 23 40  1  0  0  0  0
M  END
$$$$
