ZINC000000031527      none
 OpenBabel11202420163D

 36 38  0  0  0  0  0  0  0  0999 V2000
   32.4626   35.8999   58.6164 O   0  0  0  0  0  0  0  0  0  0  0  0
   32.6332   37.0663   58.3231 C   0  0  0  0  0  0  0  0  0  0  0  0
   32.2892   38.0368   59.1920 O   0  0  0  0  0  0  0  0  0  0  0  0
   31.7565   37.6422   60.3785 C   0  0  0  0  0  0  0  0  0  0  0  0
   32.5838   37.4003   61.4655 C   0  0  0  0  0  0  0  0  0  0  0  0
   32.0395   37.0039   62.6717 C   0  0  0  0  0  0  0  0  0  0  0  0
   30.6722   36.8378   62.7931 C   0  0  0  0  0  0  0  0  0  0  0  0
   30.0816   36.3993   64.1084 C   0  0  0  0  0  0  0  0  0  0  0  0
   31.2180   35.2493   64.9626 S   0  0  0  0  0  0  0  0  0  0  0  0
   29.9949   34.1051   65.6979 C   0  0  0  0  0  0  0  0  0  0  0  0
   28.9763   33.8302   64.5693 C   0  0  0  0  0  0  0  0  0  0  0  0
   28.5556   35.4400   63.8288 S   0  0  0  0  0  0  0  0  0  0  0  0
   29.8458   37.0737   61.7099 C   0  0  0  0  0  0  0  0  0  0  0  0
   30.3848   37.4752   60.5030 C   0  0  0  0  0  0  0  0  0  0  0  0
   33.2182   37.4207   57.0138 C   0  0  0  0  0  0  0  0  0  0  0  0
   33.4154   38.7605   56.6733 C   0  0  0  0  0  0  0  0  0  0  0  0
   33.9616   39.0843   55.4488 C   0  0  0  0  0  0  0  0  0  0  0  0
   34.3137   38.0852   54.5586 C   0  0  0  0  0  0  0  0  0  0  0  0
   34.8985   38.4403   53.2461 N   0  0  0  0  0  0  0  0  0  0  0  0
   35.0690   39.6098   52.9517 O   0  0  0  0  0  0  0  0  0  0  0  0
   35.2093   37.5630   52.4604 O   0  0  0  0  0  0  0  0  0  0  0  0
   34.1162   36.7557   54.8875 C   0  0  0  0  0  0  0  0  0  0  0  0
   33.5760   36.4174   56.1109 C   0  0  0  0  0  0  0  0  0  0  0  0
   33.6523   37.5256   61.3699 H   0  0  0  0  0  0  0  0  0  0  0  0
   32.6828   36.8194   63.5193 H   0  0  0  0  0  0  0  0  0  0  0  0
   29.8742   37.2654   64.7368 H   0  0  0  0  0  0  0  0  0  0  0  0
   29.5005   34.5745   66.5485 H   0  0  0  0  0  0  0  0  0  0  0  0
   30.4783   33.1780   66.0059 H   0  0  0  0  0  0  0  0  0  0  0  0
   28.0809   33.3648   64.9813 H   0  0  0  0  0  0  0  0  0  0  0  0
   29.4209   33.1792   63.8166 H   0  0  0  0  0  0  0  0  0  0  0  0
   28.7782   36.9435   61.8074 H   0  0  0  0  0  0  0  0  0  0  0  0
   29.7389   37.6594   59.6572 H   0  0  0  0  0  0  0  0  0  0  0  0
   33.1412   39.5413   57.3672 H   0  0  0  0  0  0  0  0  0  0  0  0
   34.1148   40.1201   55.1841 H   0  0  0  0  0  0  0  0  0  0  0  0
   34.3890   35.9809   54.1862 H   0  0  0  0  0  0  0  0  0  0  0  0
   33.4262   35.3793   56.3681 H   0  0  0  0  0  0  0  0  0  0  0  0
  1  2  2  0  0  0  0
  2  3  1  0  0  0  0
  2 15  1  0  0  0  0
  3  4  1  0  0  0  0
  4 14  2  0  0  0  0
  4  5  1  0  0  0  0
  5  6  2  0  0  0  0
  5 24  1  0  0  0  0
  6  7  1  0  0  0  0
  6 25  1  0  0  0  0
  7  8  1  0  0  0  0
  7 13  2  0  0  0  0
  8 12  1  0  0  0  0
  8  9  1  0  0  0  0
  8 26  1  0  0  0  0
  9 10  1  0  0  0  0
 10 11  1  0  0  0  0
 10 27  1  0  0  0  0
 10 28  1  0  0  0  0
 11 12  1  0  0  0  0
 11 29  1  0  0  0  0
 11 30  1  0  0  0  0
 13 14  1  0  0  0  0
 13 31  1  0  0  0  0
 14 32  1  0  0  0  0
 15 23  2  0  0  0  0
 15 16  1  0  0  0  0
 16 17  2  0  0  0  0
 16 33  1  0  0  0  0
 17 18  1  0  0  0  0
 17 34  1  0  0  0  0
 18 19  1  0  0  0  0
 18 22  2  0  0  0  0
 19 20  2  0  0  0  0
 19 21  2  0  0  0  0
 22 23  1  0  0  0  0
 22 35  1  0  0  0  0
 23 36  1  0  0  0  0
M  END
$$$$
