ZINC000000027960      none
 OpenBabel11202420153D

 37 38  0  0  0  0  0  0  0  0999 V2000
   31.1640   33.3084   58.6852 C   0  0  0  0  0  0  0  0  0  0  0  0
   32.4182   33.9079   59.3244 C   0  0  0  0  0  0  0  0  0  0  0  0
   32.1945   35.3743   59.5905 C   0  0  0  0  0  0  0  0  0  0  0  0
   32.4872   36.3273   58.7174 C   0  0  0  0  0  0  0  0  0  0  0  0
   33.0780   36.0847   57.3525 C   0  0  0  0  0  0  0  0  0  0  0  0
   32.0911   37.9094   59.3643 S   0  0  0  0  0  0  0  0  0  0  0  0
   31.5346   37.2526   60.8352 C   0  0  0  0  0  0  0  0  0  0  0  0
   31.0396   37.9969   61.8930 N   0  0  0  0  0  0  0  0  0  0  0  0
   31.6432   37.9415   63.0968 C   0  0  0  0  0  0  0  0  0  0  0  0
   32.6218   37.2383   63.2540 O   0  0  0  0  0  0  0  0  0  0  0  0
   31.1138   38.7372   64.2278 C   0  0  0  0  0  0  0  0  0  0  0  0
   29.7618   39.0899   64.2878 C   0  0  0  0  0  0  0  0  0  0  0  0
   29.3097   39.8292   65.3636 C   0  0  0  0  0  0  0  0  0  0  0  0
   30.1351   40.2092   66.3185 N   0  0  0  0  0  0  0  0  0  0  0  0
   31.4170   39.9027   66.2983 C   0  0  0  0  0  0  0  0  0  0  0  0
   31.9529   39.1619   65.2628 C   0  0  0  0  0  0  0  0  0  0  0  0
   31.6441   35.8848   60.8273 C   0  0  0  0  0  0  0  0  0  0  0  0
   31.2461   35.0331   61.9499 C   0  0  0  0  0  0  0  0  0  0  0  0
   31.8183   33.9776   62.1453 O   0  0  0  0  0  0  0  0  0  0  0  0
   30.2450   35.4189   62.7674 O   0  0  0  0  0  0  0  0  0  0  0  0
   29.9041   34.5249   63.8595 C   0  0  0  0  0  0  0  0  0  0  0  0
   30.3179   33.4300   59.3616 H   0  0  0  0  0  0  0  0  0  0  0  0
   30.9547   33.8203   57.7460 H   0  0  0  0  0  0  0  0  0  0  0  0
   31.3258   32.2478   58.4929 H   0  0  0  0  0  0  0  0  0  0  0  0
   32.6274   33.3960   60.2638 H   0  0  0  0  0  0  0  0  0  0  0  0
   33.2643   33.7863   58.6481 H   0  0  0  0  0  0  0  0  0  0  0  0
   32.2750   35.9535   56.6271 H   0  0  0  0  0  0  0  0  0  0  0  0
   33.6914   36.9387   57.0650 H   0  0  0  0  0  0  0  0  0  0  0  0
   33.6950   35.1864   57.3780 H   0  0  0  0  0  0  0  0  0  0  0  0
   30.2585   38.5581   61.7675 H   0  0  0  0  0  0  0  0  0  0  0  0
   29.0808   38.7860   63.5067 H   0  0  0  0  0  0  0  0  0  0  0  0
   28.2666   40.1031   65.4211 H   0  0  0  0  0  0  0  0  0  0  0  0
   32.0570   40.2356   67.1019 H   0  0  0  0  0  0  0  0  0  0  0  0
   33.0041   38.9141   65.2529 H   0  0  0  0  0  0  0  0  0  0  0  0
   29.0856   34.9535   64.4379 H   0  0  0  0  0  0  0  0  0  0  0  0
   29.5977   33.5595   63.4566 H   0  0  0  0  0  0  0  0  0  0  0  0
   30.7729   34.3904   64.5039 H   0  0  0  0  0  0  0  0  0  0  0  0
  1  2  1  0  0  0  0
  1 22  1  0  0  0  0
  1 23  1  0  0  0  0
  1 24  1  0  0  0  0
  2  3  1  0  0  0  0
  2 25  1  0  0  0  0
  2 26  1  0  0  0  0
  3 17  1  0  0  0  0
  3  4  2  0  0  0  0
  4  5  1  0  0  0  0
  4  6  1  0  0  0  0
  5 27  1  0  0  0  0
  5 28  1  0  0  0  0
  5 29  1  0  0  0  0
  6  7  1  0  0  0  0
  7  8  1  0  0  0  0
  7 17  2  0  0  0  0
  8  9  1  0  0  0  0
  8 30  1  0  0  0  0
  9 10  2  0  0  0  0
  9 11  1  0  0  0  0
 11 16  2  0  0  0  0
 11 12  1  0  0  0  0
 12 13  2  0  0  0  0
 12 31  1  0  0  0  0
 13 14  1  0  0  0  0
 13 32  1  0  0  0  0
 14 15  2  0  0  0  0
 15 16  1  0  0  0  0
 15 33  1  0  0  0  0
 16 34  1  0  0  0  0
 17 18  1  0  0  0  0
 18 19  2  0  0  0  0
 18 20  1  0  0  0  0
 20 21  1  0  0  0  0
 21 35  1  0  0  0  0
 21 36  1  0  0  0  0
 21 37  1  0  0  0  0
M  END
$$$$
