ZINC000000046484      none
 OpenBabel11202420153D

 25 25  0  0  0  0  0  0  0  0999 V2000
   32.0442   33.4563   55.4512 C   0  0  0  0  0  0  0  0  0  0  0  0
   32.2976   34.4588   56.4375 O   0  0  0  0  0  0  0  0  0  0  0  0
   32.8388   35.6281   56.0042 C   0  0  0  0  0  0  0  0  0  0  0  0
   33.1197   35.8072   54.6592 C   0  0  0  0  0  0  0  0  0  0  0  0
   33.6697   36.9970   54.2200 C   0  0  0  0  0  0  0  0  0  0  0  0
   33.9417   38.0121   55.1194 C   0  0  0  0  0  0  0  0  0  0  0  0
   34.5306   39.2833   54.6417 N   0  0  0  0  0  0  0  0  0  0  0  0
   34.7750   39.4345   53.4582 O   0  0  0  0  0  0  0  0  0  0  0  0
   34.7708   40.1783   55.4323 O   0  0  0  0  0  0  0  0  0  0  0  0
   33.6602   37.8448   56.4614 C   0  0  0  0  0  0  0  0  0  0  0  0
   33.1125   36.6507   56.9118 C   0  0  0  0  0  0  0  0  0  0  0  0
   32.8314   36.4767   58.2682 N   0  0  0  0  0  0  0  0  0  0  0  0
   32.8816   35.2986   58.7913 N   0  0  0  0  0  0  0  0  0  0  0  0
   32.1047   34.9973   59.8107 C   0  0  0  0  0  0  0  0  0  0  0  0
   31.2039   35.9773   60.3386 C   0  0  0  0  0  0  0  0  0  0  0  0
   30.4894   36.7548   60.7574 N   0  0  0  0  0  0  0  0  0  0  0  0
   32.1604   33.6895   60.3914 C   0  0  0  0  0  0  0  0  0  0  0  0
   32.2046   32.6521   60.8520 N   0  0  0  0  0  0  0  0  0  0  0  0
   32.9795   33.1827   54.9625 H   0  0  0  0  0  0  0  0  0  0  0  0
   31.6134   32.5767   55.9295 H   0  0  0  0  0  0  0  0  0  0  0  0
   31.3468   33.8446   54.7091 H   0  0  0  0  0  0  0  0  0  0  0  0
   32.9086   35.0173   53.9537 H   0  0  0  0  0  0  0  0  0  0  0  0
   33.8875   37.1345   53.1712 H   0  0  0  0  0  0  0  0  0  0  0  0
   33.8699   38.6407   57.1606 H   0  0  0  0  0  0  0  0  0  0  0  0
   32.6024   37.2422   58.8182 H   0  0  0  0  0  0  0  0  0  0  0  0
  1  2  1  0  0  0  0
  1 19  1  0  0  0  0
  1 20  1  0  0  0  0
  1 21  1  0  0  0  0
  2  3  1  0  0  0  0
  3 11  2  0  0  0  0
  3  4  1  0  0  0  0
  4  5  2  0  0  0  0
  4 22  1  0  0  0  0
  5  6  1  0  0  0  0
  5 23  1  0  0  0  0
  6  7  1  0  0  0  0
  6 10  2  0  0  0  0
  7  8  2  0  0  0  0
  7  9  2  0  0  0  0
 10 11  1  0  0  0  0
 10 24  1  0  0  0  0
 11 12  1  0  0  0  0
 12 13  1  0  0  0  0
 12 25  1  0  0  0  0
 13 14  2  0  0  0  0
 14 15  1  0  0  0  0
 14 17  1  0  0  0  0
 15 16  3  0  0  0  0
 17 18  3  0  0  0  0
M  END
$$$$
