ZINC000000001890      none
 OpenBabel11202420153D

 21 21  0  0  0  0  0  0  0  0999 V2000
   32.5965   33.5010   55.9820 C   0  0  0  0  0  0  0  0  0  0  0  0
   32.9071   34.9869   56.1727 C   0  0  0  0  0  0  0  0  0  0  0  0
   32.5068   35.4094   57.5628 C   0  0  0  0  0  0  0  0  0  0  0  0
   32.0209   34.6013   58.3259 O   0  0  0  0  0  0  0  0  0  0  0  0
   32.7049   36.7993   57.9936 C   0  0  0  0  0  0  0  0  0  0  0  0
   32.3285   37.1957   59.2829 C   0  0  0  0  0  0  0  0  0  0  0  0
   32.5205   38.4934   59.6820 C   0  0  0  0  0  0  0  0  0  0  0  0
   33.0778   39.4180   58.8051 C   0  0  0  0  0  0  0  0  0  0  0  0
   33.2600   40.7021   59.2028 O   0  0  0  0  0  0  0  0  0  0  0  0
   33.4485   39.0308   57.5218 C   0  0  0  0  0  0  0  0  0  0  0  0
   33.2656   37.7343   57.1146 C   0  0  0  0  0  0  0  0  0  0  0  0
   33.1539   32.9164   56.7141 H   0  0  0  0  0  0  0  0  0  0  0  0
   31.5285   33.3324   56.1197 H   0  0  0  0  0  0  0  0  0  0  0  0
   32.8859   33.1954   54.9766 H   0  0  0  0  0  0  0  0  0  0  0  0
   33.9751   35.1554   56.0352 H   0  0  0  0  0  0  0  0  0  0  0  0
   32.3498   35.5714   55.4408 H   0  0  0  0  0  0  0  0  0  0  0  0
   31.8913   36.4796   59.9630 H   0  0  0  0  0  0  0  0  0  0  0  0
   32.2344   38.7992   60.6775 H   0  0  0  0  0  0  0  0  0  0  0  0
   32.9727   40.8775   60.1094 H   0  0  0  0  0  0  0  0  0  0  0  0
   33.8807   39.7525   56.8446 H   0  0  0  0  0  0  0  0  0  0  0  0
   33.5531   37.4347   56.1176 H   0  0  0  0  0  0  0  0  0  0  0  0
  1  2  1  0  0  0  0
  1 12  1  0  0  0  0
  1 13  1  0  0  0  0
  1 14  1  0  0  0  0
  2  3  1  0  0  0  0
  2 15  1  0  0  0  0
  2 16  1  0  0  0  0
  3  4  2  0  0  0  0
  3  5  1  0  0  0  0
  5 11  2  0  0  0  0
  5  6  1  0  0  0  0
  6  7  2  0  0  0  0
  6 17  1  0  0  0  0
  7  8  1  0  0  0  0
  7 18  1  0  0  0  0
  8  9  1  0  0  0  0
  8 10  2  0  0  0  0
  9 19  1  0  0  0  0
 10 11  1  0  0  0  0
 10 20  1  0  0  0  0
 11 21  1  0  0  0  0
M  END
$$$$
