ZINC000000035371      none
 OpenBabel11202420153D

 46 48  0  0  1  0  0  0  0  0999 V2000
   31.2599   38.0071   58.6808 O   0  0  0  0  0  0  0  0  0  0  0  0
   31.9148   37.0100   58.9143 C   0  0  0  0  0  0  0  0  0  0  0  0
   32.0294   36.5603   60.1797 N   0  0  0  0  0  0  0  0  0  0  0  0
   31.3646   37.2729   61.2735 C   0  0  2  0  0  0  0  0  0  0  0  0
   32.1710   37.0963   62.5617 C   0  0  0  0  0  0  0  0  0  0  0  0
   31.4767   37.8406   63.7040 C   0  0  0  0  0  0  0  0  0  0  0  0
   30.0695   37.2732   63.9014 C   0  0  2  0  0  0  0  0  0  0  0  0
   30.1591   35.8484   64.2301 N   0  0  0  0  0  0  0  0  0  0  0  0
   29.2186   35.2756   65.0071 C   0  0  0  0  0  0  0  0  0  0  0  0
   28.2957   35.9414   65.4352 O   0  0  0  0  0  0  0  0  0  0  0  0
   29.3089   33.8392   65.3386 C   0  0  0  0  0  0  0  0  0  0  0  0
   29.9065   32.9488   64.4439 C   0  0  0  0  0  0  0  0  0  0  0  0
   29.9873   31.6093   64.7591 C   0  0  0  0  0  0  0  0  0  0  0  0
   29.4782   31.1442   65.9611 C   0  0  0  0  0  0  0  0  0  0  0  0
   28.8850   32.0171   66.8517 C   0  0  0  0  0  0  0  0  0  0  0  0
   28.7961   33.3639   66.5495 C   0  0  0  0  0  0  0  0  0  0  0  0
   28.2158   34.2174   67.4212 F   0  0  0  0  0  0  0  0  0  0  0  0
   29.2631   37.4498   62.6132 C   0  0  0  0  0  0  0  0  0  0  0  0
   29.9575   36.7056   61.4709 C   0  0  0  0  0  0  0  0  0  0  0  0
   32.5857   36.2909   57.8105 C   0  0  0  0  0  0  0  0  0  0  0  0
   32.8444   34.9238   57.9197 C   0  0  0  0  0  0  0  0  0  0  0  0
   33.4669   34.2577   56.8842 C   0  0  0  0  0  0  0  0  0  0  0  0
   33.8435   34.9441   55.7434 C   0  0  0  0  0  0  0  0  0  0  0  0
   33.5942   36.3003   55.6308 C   0  0  0  0  0  0  0  0  0  0  0  0
   32.9682   36.9774   56.6569 C   0  0  0  0  0  0  0  0  0  0  0  0
   32.5520   35.7646   60.3661 H   0  0  0  0  0  0  0  0  0  0  0  0
   31.2980   38.3330   61.0289 H   0  0  0  0  0  0  0  0  0  0  0  0
   33.1735   37.5005   62.4210 H   0  0  0  0  0  0  0  0  0  0  0  0
   32.2377   36.0362   62.8062 H   0  0  0  0  0  0  0  0  0  0  0  0
   31.4101   38.9007   63.4595 H   0  0  0  0  0  0  0  0  0  0  0  0
   32.0512   37.7148   64.6217 H   0  0  0  0  0  0  0  0  0  0  0  0
   29.5749   37.8036   64.7152 H   0  0  0  0  0  0  0  0  0  0  0  0
   30.8954   35.3173   63.8885 H   0  0  0  0  0  0  0  0  0  0  0  0
   30.3043   33.3090   63.5067 H   0  0  0  0  0  0  0  0  0  0  0  0
   30.4493   30.9205   64.0673 H   0  0  0  0  0  0  0  0  0  0  0  0
   29.5456   30.0933   66.2005 H   0  0  0  0  0  0  0  0  0  0  0  0
   28.4861   31.6465   67.7844 H   0  0  0  0  0  0  0  0  0  0  0  0
   28.2606   37.0457   62.7538 H   0  0  0  0  0  0  0  0  0  0  0  0
   29.1965   38.5100   62.3687 H   0  0  0  0  0  0  0  0  0  0  0  0
   29.3829   36.8313   60.5531 H   0  0  0  0  0  0  0  0  0  0  0  0
   30.0241   35.6454   61.7154 H   0  0  0  0  0  0  0  0  0  0  0  0
   32.5550   34.3877   58.8116 H   0  0  0  0  0  0  0  0  0  0  0  0
   33.6643   33.1990   56.9660 H   0  0  0  0  0  0  0  0  0  0  0  0
   34.3345   34.4189   54.9375 H   0  0  0  0  0  0  0  0  0  0  0  0
   33.8907   36.8304   54.7377 H   0  0  0  0  0  0  0  0  0  0  0  0
   32.7748   38.0361   56.5681 H   0  0  0  0  0  0  0  0  0  0  0  0
  1  2  2  0  0  0  0
  2  3  1  0  0  0  0
  2 20  1  0  0  0  0
  3  4  1  0  0  0  0
  3 26  1  0  0  0  0
  4 19  1  0  0  0  0
  4  5  1  0  0  0  0
  4 27  1  6  0  0  0
  5  6  1  0  0  0  0
  5 28  1  0  0  0  0
  5 29  1  0  0  0  0
  6  7  1  0  0  0  0
  6 30  1  0  0  0  0
  6 31  1  0  0  0  0
  7  8  1  0  0  0  0
  7 18  1  0  0  0  0
  7 32  1  1  0  0  0
  8  9  1  0  0  0  0
  8 33  1  0  0  0  0
  9 10  2  0  0  0  0
  9 11  1  0  0  0  0
 11 16  2  0  0  0  0
 11 12  1  0  0  0  0
 12 13  2  0  0  0  0
 12 34  1  0  0  0  0
 13 14  1  0  0  0  0
 13 35  1  0  0  0  0
 14 15  2  0  0  0  0
 14 36  1  0  0  0  0
 15 16  1  0  0  0  0
 15 37  1  0  0  0  0
 16 17  1  0  0  0  0
 18 19  1  0  0  0  0
 18 38  1  0  0  0  0
 18 39  1  0  0  0  0
 19 40  1  0  0  0  0
 19 41  1  0  0  0  0
 20 25  2  0  0  0  0
 20 21  1  0  0  0  0
 21 22  2  0  0  0  0
 21 42  1  0  0  0  0
 22 23  1  0  0  0  0
 22 43  1  0  0  0  0
 23 24  2  0  0  0  0
 23 44  1  0  0  0  0
 24 25  1  0  0  0  0
 24 45  1  0  0  0  0
 25 46  1  0  0  0  0
M  END
$$$$
