ZINC000000051438      none
 OpenBabel11202420153D

 41 43  0  0  0  0  0  0  0  0999 V2000
   31.4609   35.4798   63.7184 O   0  0  0  0  0  0  0  0  0  0  0  0
   30.6832   36.3032   63.2846 C   0  0  0  0  0  0  0  0  0  0  0  0
   30.0220   36.0844   61.9481 C   0  0  0  0  0  0  0  0  0  0  0  0
   30.8508   36.6701   60.8915 N   0  0  0  0  0  0  0  0  0  0  0  0
   31.1826   37.9717   60.8179 C   0  0  0  0  0  0  0  0  0  0  0  0
   30.8472   38.8344   61.6042 O   0  0  0  0  0  0  0  0  0  0  0  0
   32.0236   38.1763   59.6198 C   0  0  0  0  0  0  0  0  0  0  0  0
   32.6430   39.2763   59.0484 C   0  0  0  0  0  0  0  0  0  0  0  0
   33.3820   39.1221   57.8859 C   0  0  0  0  0  0  0  0  0  0  0  0
   33.5055   37.8792   57.2938 C   0  0  0  0  0  0  0  0  0  0  0  0
   32.8919   36.7698   57.8542 C   0  0  0  0  0  0  0  0  0  0  0  0
   33.0285   35.4423   57.2141 N   0  0  0  0  0  0  0  0  0  0  0  0
   33.6812   35.3230   56.1927 O   0  0  0  0  0  0  0  0  0  0  0  0
   32.4881   34.4691   57.7086 O   0  0  0  0  0  0  0  0  0  0  0  0
   32.1496   36.9090   59.0160 C   0  0  0  0  0  0  0  0  0  0  0  0
   31.3850   35.9762   59.8705 C   0  0  0  0  0  0  0  0  0  0  0  0
   31.2580   34.7833   59.6810 O   0  0  0  0  0  0  0  0  0  0  0  0
   30.4104   37.4138   63.9978 N   0  0  0  0  0  0  0  0  0  0  0  0
   31.0531   37.6264   65.2968 C   0  0  0  0  0  0  0  0  0  0  0  0
   32.5716   37.6687   65.1138 C   0  0  0  0  0  0  0  0  0  0  0  0
   33.2428   37.8906   66.4706 C   0  0  0  0  0  0  0  0  0  0  0  0
   32.8747   36.7450   67.4154 C   0  0  0  0  0  0  0  0  0  0  0  0
   31.3562   36.7027   67.5985 C   0  0  0  0  0  0  0  0  0  0  0  0
   30.6850   36.4807   66.2417 C   0  0  0  0  0  0  0  0  0  0  0  0
   29.0410   36.5598   61.9460 H   0  0  0  0  0  0  0  0  0  0  0  0
   29.9079   35.0152   61.7698 H   0  0  0  0  0  0  0  0  0  0  0  0
   32.5495   40.2500   59.5065 H   0  0  0  0  0  0  0  0  0  0  0  0
   33.8645   39.9791   57.4396 H   0  0  0  0  0  0  0  0  0  0  0  0
   34.0839   37.7718   56.3882 H   0  0  0  0  0  0  0  0  0  0  0  0
   29.7884   38.0723   63.6507 H   0  0  0  0  0  0  0  0  0  0  0  0
   30.7119   38.5709   65.7208 H   0  0  0  0  0  0  0  0  0  0  0  0
   32.9127   36.7241   64.6898 H   0  0  0  0  0  0  0  0  0  0  0  0
   32.8338   38.4847   64.4407 H   0  0  0  0  0  0  0  0  0  0  0  0
   32.9016   38.8352   66.8945 H   0  0  0  0  0  0  0  0  0  0  0  0
   34.3246   37.9208   66.3401 H   0  0  0  0  0  0  0  0  0  0  0  0
   33.3529   36.9032   68.3819 H   0  0  0  0  0  0  0  0  0  0  0  0
   33.2159   35.8005   66.9914 H   0  0  0  0  0  0  0  0  0  0  0  0
   31.0151   37.6473   68.0224 H   0  0  0  0  0  0  0  0  0  0  0  0
   31.0939   35.8866   68.2716 H   0  0  0  0  0  0  0  0  0  0  0  0
   29.6032   36.4506   66.3721 H   0  0  0  0  0  0  0  0  0  0  0  0
   31.0262   35.5362   65.8177 H   0  0  0  0  0  0  0  0  0  0  0  0
  1  2  2  0  0  0  0
  2  3  1  0  0  0  0
  2 18  1  0  0  0  0
  3  4  1  0  0  0  0
  3 25  1  0  0  0  0
  3 26  1  0  0  0  0
  4 16  1  0  0  0  0
  4  5  1  0  0  0  0
  5  6  2  0  0  0  0
  5  7  1  0  0  0  0
  7 15  2  0  0  0  0
  7  8  1  0  0  0  0
  8  9  2  0  0  0  0
  8 27  1  0  0  0  0
  9 10  1  0  0  0  0
  9 28  1  0  0  0  0
 10 11  2  0  0  0  0
 10 29  1  0  0  0  0
 11 12  1  0  0  0  0
 11 15  1  0  0  0  0
 12 13  2  0  0  0  0
 12 14  2  0  0  0  0
 15 16  1  0  0  0  0
 16 17  2  0  0  0  0
 18 19  1  0  0  0  0
 18 30  1  0  0  0  0
 19 24  1  0  0  0  0
 19 20  1  0  0  0  0
 19 31  1  0  0  0  0
 20 21  1  0  0  0  0
 20 32  1  0  0  0  0
 20 33  1  0  0  0  0
 21 22  1  0  0  0  0
 21 34  1  0  0  0  0
 21 35  1  0  0  0  0
 22 23  1  0  0  0  0
 22 36  1  0  0  0  0
 22 37  1  0  0  0  0
 23 24  1  0  0  0  0
 23 38  1  0  0  0  0
 23 39  1  0  0  0  0
 24 40  1  0  0  0  0
 24 41  1  0  0  0  0
M  END
$$$$
