ZINC000000036692      none
 OpenBabel11202420153D

 32 33  0  0  0  0  0  0  0  0999 V2000
   33.5300   39.2287   56.6163 O   0  0  0  0  0  0  0  0  0  0  0  0
   33.6123   38.1284   56.1003 N   0  0  0  0  0  0  0  0  0  0  0  0
   33.9820   38.0240   54.9444 O   0  0  0  0  0  0  0  0  0  0  0  0
   33.2630   36.9183   56.8778 C   0  0  0  0  0  0  0  0  0  0  0  0
   33.3568   35.6694   56.2922 C   0  0  0  0  0  0  0  0  0  0  0  0
   33.0308   34.5395   57.0182 C   0  0  0  0  0  0  0  0  0  0  0  0
   32.6152   34.6577   58.3316 C   0  0  0  0  0  0  0  0  0  0  0  0
   32.5169   35.9066   58.9155 C   0  0  0  0  0  0  0  0  0  0  0  0
   31.9820   36.0576   60.5875 S   0  0  0  0  0  0  0  0  0  0  0  0
   32.5647   37.2746   61.0332 O   0  0  0  0  0  0  0  0  0  0  0  0
   32.3343   34.8158   61.1818 O   0  0  0  0  0  0  0  0  0  0  0  0
   30.1788   36.2197   60.4731 C   0  0  0  0  0  0  0  0  0  0  0  0
   29.6674   37.0638   61.6422 C   0  0  0  0  0  0  0  0  0  0  0  0
   30.0301   36.3934   62.9422 C   0  0  0  0  0  0  0  0  0  0  0  0
   31.2317   36.6743   63.5745 C   0  0  0  0  0  0  0  0  0  0  0  0
   31.5284   36.0431   64.7677 C   0  0  0  0  0  0  0  0  0  0  0  0
   30.6887   35.1764   65.2994 N   0  0  0  0  0  0  0  0  0  0  0  0
   29.5396   34.8815   64.7237 C   0  0  0  0  0  0  0  0  0  0  0  0
   29.1729   35.4766   63.5314 C   0  0  0  0  0  0  0  0  0  0  0  0
   32.8435   37.0369   58.1894 C   0  0  0  0  0  0  0  0  0  0  0  0
   33.6847   35.5768   55.2673 H   0  0  0  0  0  0  0  0  0  0  0  0
   33.1037   33.5639   56.5606 H   0  0  0  0  0  0  0  0  0  0  0  0
   32.3642   33.7744   58.9002 H   0  0  0  0  0  0  0  0  0  0  0  0
   29.7220   35.2307   60.5117 H   0  0  0  0  0  0  0  0  0  0  0  0
   29.9166   36.7044   59.5327 H   0  0  0  0  0  0  0  0  0  0  0  0
   30.1244   38.0527   61.6035 H   0  0  0  0  0  0  0  0  0  0  0  0
   28.5841   37.1612   61.5734 H   0  0  0  0  0  0  0  0  0  0  0  0
   31.9255   37.3798   63.1418 H   0  0  0  0  0  0  0  0  0  0  0  0
   32.4605   36.2595   65.2686 H   0  0  0  0  0  0  0  0  0  0  0  0
   28.8774   34.1665   65.1891 H   0  0  0  0  0  0  0  0  0  0  0  0
   28.2303   35.2311   63.0648 H   0  0  0  0  0  0  0  0  0  0  0  0
   32.7706   38.0124   58.6470 H   0  0  0  0  0  0  0  0  0  0  0  0
  1  2  2  0  0  0  0
  2  3  2  0  0  0  0
  2  4  1  0  0  0  0
  4 20  2  0  0  0  0
  4  5  1  0  0  0  0
  5  6  2  0  0  0  0
  5 21  1  0  0  0  0
  6  7  1  0  0  0  0
  6 22  1  0  0  0  0
  7  8  2  0  0  0  0
  7 23  1  0  0  0  0
  8  9  1  0  0  0  0
  8 20  1  0  0  0  0
  9 10  2  0  0  0  0
  9 11  2  0  0  0  0
  9 12  1  0  0  0  0
 12 13  1  0  0  0  0
 12 24  1  0  0  0  0
 12 25  1  0  0  0  0
 13 14  1  0  0  0  0
 13 26  1  0  0  0  0
 13 27  1  0  0  0  0
 14 19  2  0  0  0  0
 14 15  1  0  0  0  0
 15 16  2  0  0  0  0
 15 28  1  0  0  0  0
 16 17  1  0  0  0  0
 16 29  1  0  0  0  0
 17 18  2  0  0  0  0
 18 19  1  0  0  0  0
 18 30  1  0  0  0  0
 19 31  1  0  0  0  0
 20 32  1  0  0  0  0
M  END
$$$$
