ZINC000000057235      none
 OpenBabel11202420153D

 42 43  0  0  1  0  0  0  0  0999 V2000
   32.9855   37.2173   65.0914 C   0  0  0  0  0  0  0  0  0  0  0  0
   31.8362   38.1560   64.7189 C   0  0  2  0  0  0  0  0  0  0  0  0
   32.2265   38.9997   64.1497 H   0  0  0  0  0  0  0  0  0  0  0  0
   31.1630   38.6688   65.9940 C   0  0  0  0  0  0  0  0  0  0  0  0
   30.5986   37.4822   66.7800 C   0  0  0  0  0  0  0  0  0  0  0  0
   29.6157   36.7134   65.8927 C   0  0  0  0  0  0  0  0  0  0  0  0
   30.3338   36.2572   64.6206 C   0  0  1  0  0  0  0  0  0  0  0  0
   31.1597   35.5973   64.8866 H   0  0  0  0  0  0  0  0  0  0  0  0
   29.3501   35.5056   63.7215 C   0  0  0  0  0  0  0  0  0  0  0  0
   30.8546   37.4285   63.9042 N   0  0  0  0  0  0  0  0  0  0  0  0
   31.3890   37.0681   62.6999 N   0  0  0  0  0  0  0  0  0  0  0  0
   31.2895   37.8984   61.6429 C   0  0  0  0  0  0  0  0  0  0  0  0
   30.7243   38.9681   61.7613 O   0  0  0  0  0  0  0  0  0  0  0  0
   31.8675   37.5083   60.3398 C   0  0  0  0  0  0  0  0  0  0  0  0
   32.2818   38.4882   59.4354 C   0  0  0  0  0  0  0  0  0  0  0  0
   32.8155   38.1182   58.2191 C   0  0  0  0  0  0  0  0  0  0  0  0
   32.9514   36.7774   57.8984 C   0  0  0  0  0  0  0  0  0  0  0  0
   33.6315   36.3192   56.3682 Cl  0  0  0  0  0  0  0  0  0  0  0  0
   32.5475   35.8011   58.7937 C   0  0  0  0  0  0  0  0  0  0  0  0
   32.7239   34.0983   58.3764 S   0  0  0  0  0  0  0  0  0  0  0  0
   31.3280   33.6325   57.6171 N   0  0  0  0  0  0  0  0  0  0  0  0
   33.7541   34.0290   57.4000 O   0  0  0  0  0  0  0  0  0  0  0  0
   32.7689   33.3866   59.6055 O   0  0  0  0  0  0  0  0  0  0  0  0
   32.0070   36.1589   60.0110 C   0  0  0  0  0  0  0  0  0  0  0  0
   33.4656   36.8526   64.1833 H   0  0  0  0  0  0  0  0  0  0  0  0
   33.7141   37.7571   65.6960 H   0  0  0  0  0  0  0  0  0  0  0  0
   32.5953   36.3732   65.6600 H   0  0  0  0  0  0  0  0  0  0  0  0
   30.3529   39.3485   65.7297 H   0  0  0  0  0  0  0  0  0  0  0  0
   31.8950   39.1957   66.6061 H   0  0  0  0  0  0  0  0  0  0  0  0
   30.0806   37.8463   67.6672 H   0  0  0  0  0  0  0  0  0  0  0  0
   31.4127   36.8218   67.0789 H   0  0  0  0  0  0  0  0  0  0  0  0
   28.7813   37.3623   65.6268 H   0  0  0  0  0  0  0  0  0  0  0  0
   29.2429   35.8428   66.4322 H   0  0  0  0  0  0  0  0  0  0  0  0
   29.8616   35.1799   62.8158 H   0  0  0  0  0  0  0  0  0  0  0  0
   28.9634   34.6361   64.2532 H   0  0  0  0  0  0  0  0  0  0  0  0
   28.5244   36.1656   63.4551 H   0  0  0  0  0  0  0  0  0  0  0  0
   31.8400   36.2146   62.6053 H   0  0  0  0  0  0  0  0  0  0  0  0
   32.1807   39.5337   59.6863 H   0  0  0  0  0  0  0  0  0  0  0  0
   33.1323   38.8751   57.5169 H   0  0  0  0  0  0  0  0  0  0  0  0
   31.3509   32.9314   56.9472 H   0  0  0  0  0  0  0  0  0  0  0  0
   30.4872   34.0607   57.8423 H   0  0  0  0  0  0  0  0  0  0  0  0
   31.6920   35.3966   60.7082 H   0  0  0  0  0  0  0  0  0  0  0  0
  1  2  1  0  0  0  0
  1 25  1  0  0  0  0
  1 26  1  0  0  0  0
  1 27  1  0  0  0  0
  2  3  1  6  0  0  0
  2 10  1  0  0  0  0
  2  4  1  0  0  0  0
  4  5  1  0  0  0  0
  4 28  1  0  0  0  0
  4 29  1  0  0  0  0
  5  6  1  0  0  0  0
  5 30  1  0  0  0  0
  5 31  1  0  0  0  0
  6  7  1  0  0  0  0
  6 32  1  0  0  0  0
  6 33  1  0  0  0  0
  7  8  1  1  0  0  0
  7  9  1  0  0  0  0
  7 10  1  0  0  0  0
  9 34  1  0  0  0  0
  9 35  1  0  0  0  0
  9 36  1  0  0  0  0
 10 11  1  0  0  0  0
 11 12  1  0  0  0  0
 11 37  1  0  0  0  0
 12 13  2  0  0  0  0
 12 14  1  0  0  0  0
 14 24  2  0  0  0  0
 14 15  1  0  0  0  0
 15 16  2  0  0  0  0
 15 38  1  0  0  0  0
 16 17  1  0  0  0  0
 16 39  1  0  0  0  0
 17 18  1  0  0  0  0
 17 19  2  0  0  0  0
 19 20  1  0  0  0  0
 19 24  1  0  0  0  0
 20 21  1  0  0  0  0
 20 22  2  0  0  0  0
 20 23  2  0  0  0  0
 21 40  1  0  0  0  0
 21 41  1  0  0  0  0
 24 42  1  0  0  0  0
M  END
$$$$
