ZINC000000018316      none
 OpenBabel11202420153D

 36 40  0  0  0  0  0  0  0  0999 V2000
   34.3132   35.1318   54.9123 O   0  0  0  0  0  0  0  0  0  0  0  0
   33.8654   35.7233   55.8779 C   0  0  0  0  0  0  0  0  0  0  0  0
   33.3333   35.0443   56.9131 N   0  0  0  0  0  0  0  0  0  0  0  0
   33.3065   34.0751   56.8883 H   0  0  0  0  0  0  0  0  0  0  0  0
   32.8202   35.7210   58.0205 C   0  0  0  0  0  0  0  0  0  0  0  0
   32.8475   37.0620   58.0745 C   0  0  0  0  0  0  0  0  0  0  0  0
   33.3803   37.8124   57.0435 N   0  0  0  0  0  0  0  0  0  0  0  0
   33.5270   39.1497   56.8538 C   0  0  0  0  0  0  0  0  0  0  0  0
   34.1229   39.3178   55.6465 C   0  0  0  0  0  0  0  0  0  0  0  0
   34.3361   38.1175   55.1104 N   0  0  0  0  0  0  0  0  0  0  0  0
   33.8955   37.1916   55.9367 C   0  0  0  0  0  0  0  0  0  0  0  0
   32.2262   37.4947   59.3845 C   0  0  0  0  0  0  0  0  0  0  0  0
   31.8325   36.2208   60.0881 C   0  0  0  0  0  0  0  0  0  0  0  0
   31.2267   35.9631   61.3098 C   0  0  0  0  0  0  0  0  0  0  0  0
   30.8374   37.0846   62.2004 C   0  0  0  0  0  0  0  0  0  0  0  0
   31.7367   37.5697   63.1476 C   0  0  0  0  0  0  0  0  0  0  0  0
   31.3696   38.6133   63.9730 C   0  0  0  0  0  0  0  0  0  0  0  0
   30.1115   39.1770   63.8614 C   0  0  0  0  0  0  0  0  0  0  0  0
   29.2148   38.6992   62.9227 C   0  0  0  0  0  0  0  0  0  0  0  0
   29.5714   37.6561   62.0924 C   0  0  0  0  0  0  0  0  0  0  0  0
   30.9908   34.6440   61.6993 C   0  0  0  0  0  0  0  0  0  0  0  0
   31.3505   33.6028   60.8655 C   0  0  0  0  0  0  0  0  0  0  0  0
   31.9522   33.8553   59.6497 C   0  0  0  0  0  0  0  0  0  0  0  0
   32.1992   35.1723   59.2497 C   0  0  0  0  0  0  0  0  0  0  0  0
   33.2256   39.9315   57.5352 H   0  0  0  0  0  0  0  0  0  0  0  0
   34.3806   40.2650   55.1962 H   0  0  0  0  0  0  0  0  0  0  0  0
   31.3459   38.1099   59.1988 H   0  0  0  0  0  0  0  0  0  0  0  0
   32.9515   38.0465   59.9825 H   0  0  0  0  0  0  0  0  0  0  0  0
   32.7208   37.1331   63.2328 H   0  0  0  0  0  0  0  0  0  0  0  0
   32.0660   38.9901   64.7076 H   0  0  0  0  0  0  0  0  0  0  0  0
   29.8280   39.9929   64.5098 H   0  0  0  0  0  0  0  0  0  0  0  0
   28.2337   39.1431   62.8399 H   0  0  0  0  0  0  0  0  0  0  0  0
   28.8705   37.2839   61.3598 H   0  0  0  0  0  0  0  0  0  0  0  0
   30.5238   34.4373   62.6509 H   0  0  0  0  0  0  0  0  0  0  0  0
   31.1626   32.5836   61.1692 H   0  0  0  0  0  0  0  0  0  0  0  0
   32.2329   33.0346   59.0062 H   0  0  0  0  0  0  0  0  0  0  0  0
  1  2  2  0  0  0  0
  2 11  1  0  0  0  0
  2  3  1  0  0  0  0
  3  4  1  0  0  0  0
  3  5  1  0  0  0  0
  5 24  1  0  0  0  0
  5  6  2  0  0  0  0
  6  7  1  0  0  0  0
  6 12  1  0  0  0  0
  7 11  1  0  0  0  0
  7  8  1  0  0  0  0
  8  9  2  0  0  0  0
  8 25  1  0  0  0  0
  9 10  1  0  0  0  0
  9 26  1  0  0  0  0
 10 11  2  0  0  0  0
 12 13  1  0  0  0  0
 12 27  1  0  0  0  0
 12 28  1  0  0  0  0
 13 24  2  0  0  0  0
 13 14  1  0  0  0  0
 14 15  1  0  0  0  0
 14 21  2  0  0  0  0
 15 20  2  0  0  0  0
 15 16  1  0  0  0  0
 16 17  2  0  0  0  0
 16 29  1  0  0  0  0
 17 18  1  0  0  0  0
 17 30  1  0  0  0  0
 18 19  2  0  0  0  0
 18 31  1  0  0  0  0
 19 20  1  0  0  0  0
 19 32  1  0  0  0  0
 20 33  1  0  0  0  0
 21 22  1  0  0  0  0
 21 34  1  0  0  0  0
 22 23  2  0  0  0  0
 22 35  1  0  0  0  0
 23 24  1  0  0  0  0
 23 36  1  0  0  0  0
M  END
$$$$
