ZINC000000035294      none
 OpenBabel11202420153D

 27 29  0  0  0  0  0  0  0  0999 V2000
   35.4278   30.8559   53.1925 O   0  0  0  0  0  0  0  0  0  0  0  0
   34.5524   31.6815   53.0077 N   0  0  0  0  0  0  0  0  0  0  0  0
   33.9585   31.7125   51.9442 O   0  0  0  0  0  0  0  0  0  0  0  0
   34.2097   32.6488   54.0747 C   0  0  0  0  0  0  0  0  0  0  0  0
   33.2145   33.5863   53.8611 C   0  0  0  0  0  0  0  0  0  0  0  0
   32.8908   34.4906   54.8520 C   0  0  0  0  0  0  0  0  0  0  0  0
   33.5685   34.4582   56.0698 C   0  0  0  0  0  0  0  0  0  0  0  0
   33.2253   35.4270   57.1384 C   0  0  0  0  0  0  0  0  0  0  0  0
   32.7779   35.1431   58.3831 C   0  0  0  0  0  0  0  0  0  0  0  0
   32.5760   36.2810   59.0676 O   0  0  0  0  0  0  0  0  0  0  0  0
   32.8768   37.3604   58.3172 C   0  0  0  0  0  0  0  0  0  0  0  0
   32.8380   38.7284   58.5593 C   0  0  0  0  0  0  0  0  0  0  0  0
   33.2149   39.6131   57.5722 C   0  0  0  0  0  0  0  0  0  0  0  0
   33.6353   39.1533   56.3326 C   0  0  0  0  0  0  0  0  0  0  0  0
   33.6804   37.8009   56.0731 C   0  0  0  0  0  0  0  0  0  0  0  0
   33.3022   36.8973   57.0626 C   0  0  0  0  0  0  0  0  0  0  0  0
   34.5740   33.5152   56.2769 C   0  0  0  0  0  0  0  0  0  0  0  0
   34.8856   32.6126   55.2806 C   0  0  0  0  0  0  0  0  0  0  0  0
   32.6902   33.6105   52.9172 H   0  0  0  0  0  0  0  0  0  0  0  0
   32.1138   35.2217   54.6846 H   0  0  0  0  0  0  0  0  0  0  0  0
   32.6078   34.1488   58.7691 H   0  0  0  0  0  0  0  0  0  0  0  0
   32.5121   39.0979   59.5204 H   0  0  0  0  0  0  0  0  0  0  0  0
   33.1826   40.6752   57.7655 H   0  0  0  0  0  0  0  0  0  0  0  0
   33.9282   39.8579   55.5683 H   0  0  0  0  0  0  0  0  0  0  0  0
   34.0081   37.4437   55.1080 H   0  0  0  0  0  0  0  0  0  0  0  0
   35.1056   33.4886   57.2167 H   0  0  0  0  0  0  0  0  0  0  0  0
   35.6617   31.8788   55.4414 H   0  0  0  0  0  0  0  0  0  0  0  0
  1  2  2  0  0  0  0
  2  3  2  0  0  0  0
  2  4  1  0  0  0  0
  4 18  2  0  0  0  0
  4  5  1  0  0  0  0
  5  6  2  0  0  0  0
  5 19  1  0  0  0  0
  6  7  1  0  0  0  0
  6 20  1  0  0  0  0
  7  8  1  0  0  0  0
  7 17  2  0  0  0  0
  8 16  1  0  0  0  0
  8  9  2  0  0  0  0
  9 10  1  0  0  0  0
  9 21  1  0  0  0  0
 10 11  1  0  0  0  0
 11 16  2  0  0  0  0
 11 12  1  0  0  0  0
 12 13  2  0  0  0  0
 12 22  1  0  0  0  0
 13 14  1  0  0  0  0
 13 23  1  0  0  0  0
 14 15  2  0  0  0  0
 14 24  1  0  0  0  0
 15 16  1  0  0  0  0
 15 25  1  0  0  0  0
 17 18  1  0  0  0  0
 17 26  1  0  0  0  0
 18 27  1  0  0  0  0
M  END
$$$$
