ZINC000000004046      none
 OpenBabel11202420153D

 34 36  0  0  0  0  0  0  0  0999 V2000
   32.3384   35.3202   63.2769 C   0  0  0  0  0  0  0  0  0  0  0  0
   31.3328   35.4371   62.2685 O   0  0  0  0  0  0  0  0  0  0  0  0
   31.7287   35.2648   60.9782 C   0  0  0  0  0  0  0  0  0  0  0  0
   31.7036   33.9891   60.4085 C   0  0  0  0  0  0  0  0  0  0  0  0
   31.2833   32.9293   61.1492 O   0  0  0  0  0  0  0  0  0  0  0  0
   32.1012   33.7943   59.1036 C   0  0  0  0  0  0  0  0  0  0  0  0
   32.5356   34.8834   58.3347 C   0  0  0  0  0  0  0  0  0  0  0  0
   32.9471   34.7040   56.9932 C   0  0  0  0  0  0  0  0  0  0  0  0
   33.3670   35.7415   56.2413 C   0  0  0  0  0  0  0  0  0  0  0  0
   33.4157   37.0564   56.7604 C   0  0  0  0  0  0  0  0  0  0  0  0
   33.8545   38.1270   55.9694 C   0  0  0  0  0  0  0  0  0  0  0  0
   33.8904   39.3980   56.5025 C   0  0  0  0  0  0  0  0  0  0  0  0
   34.3152   40.4372   55.7365 O   0  0  0  0  0  0  0  0  0  0  0  0
   33.4947   39.6277   57.8201 C   0  0  0  0  0  0  0  0  0  0  0  0
   33.0647   38.5996   58.6075 C   0  0  0  0  0  0  0  0  0  0  0  0
   33.0173   37.3016   58.0941 C   0  0  0  0  0  0  0  0  0  0  0  0
   32.5605   36.1735   58.9109 C   0  0  0  0  0  0  0  0  0  0  0  0
   32.1540   36.3535   60.2386 C   0  0  0  0  0  0  0  0  0  0  0  0
   32.1774   37.5925   60.7981 O   0  0  0  0  0  0  0  0  0  0  0  0
   30.9339   38.1143   61.2709 C   0  0  0  0  0  0  0  0  0  0  0  0
   31.8771   35.4007   64.2612 H   0  0  0  0  0  0  0  0  0  0  0  0
   32.8336   34.3534   63.1859 H   0  0  0  0  0  0  0  0  0  0  0  0
   33.0717   36.1171   63.1529 H   0  0  0  0  0  0  0  0  0  0  0  0
   31.0243   33.1585   62.0522 H   0  0  0  0  0  0  0  0  0  0  0  0
   32.0783   32.8038   58.6737 H   0  0  0  0  0  0  0  0  0  0  0  0
   32.9288   33.7134   56.5632 H   0  0  0  0  0  0  0  0  0  0  0  0
   33.6733   35.5647   55.2209 H   0  0  0  0  0  0  0  0  0  0  0  0
   34.1622   37.9574   54.9481 H   0  0  0  0  0  0  0  0  0  0  0  0
   34.5689   40.1856   54.8379 H   0  0  0  0  0  0  0  0  0  0  0  0
   33.5290   40.6297   58.2213 H   0  0  0  0  0  0  0  0  0  0  0  0
   32.7604   38.7895   59.6262 H   0  0  0  0  0  0  0  0  0  0  0  0
   30.2533   38.2489   60.4304 H   0  0  0  0  0  0  0  0  0  0  0  0
   30.4957   37.4176   61.9854 H   0  0  0  0  0  0  0  0  0  0  0  0
   31.1045   39.0746   61.7576 H   0  0  0  0  0  0  0  0  0  0  0  0
  1  2  1  0  0  0  0
  1 21  1  0  0  0  0
  1 22  1  0  0  0  0
  1 23  1  0  0  0  0
  2  3  1  0  0  0  0
  3 18  2  0  0  0  0
  3  4  1  0  0  0  0
  4  5  1  0  0  0  0
  4  6  2  0  0  0  0
  5 24  1  0  0  0  0
  6  7  1  0  0  0  0
  6 25  1  0  0  0  0
  7 17  2  0  0  0  0
  7  8  1  0  0  0  0
  8  9  2  0  0  0  0
  8 26  1  0  0  0  0
  9 10  1  0  0  0  0
  9 27  1  0  0  0  0
 10 16  2  0  0  0  0
 10 11  1  0  0  0  0
 11 12  2  0  0  0  0
 11 28  1  0  0  0  0
 12 13  1  0  0  0  0
 12 14  1  0  0  0  0
 13 29  1  0  0  0  0
 14 15  2  0  0  0  0
 14 30  1  0  0  0  0
 15 16  1  0  0  0  0
 15 31  1  0  0  0  0
 16 17  1  0  0  0  0
 17 18  1  0  0  0  0
 18 19  1  0  0  0  0
 19 20  1  0  0  0  0
 20 32  1  0  0  0  0
 20 33  1  0  0  0  0
 20 34  1  0  0  0  0
M  END
$$$$
