ZINC000000028308      none
 OpenBabel11202420163D

 34 34  0  0  0  0  0  0  0  0999 V2000
   32.4140   37.2982   65.9639 C   0  0  0  0  0  0  0  0  0  0  0  0
   31.0498   36.9024   65.3952 C   0  0  0  0  0  0  0  0  0  0  0  0
   30.5421   35.6501   66.1126 C   0  0  0  0  0  0  0  0  0  0  0  0
   30.1001   37.9995   65.5965 N   0  0  0  0  0  0  0  0  0  0  0  0
   29.5053   38.5792   64.5351 C   0  0  0  0  0  0  0  0  0  0  0  0
   28.7172   39.4895   64.7022 O   0  0  0  0  0  0  0  0  0  0  0  0
   29.8115   38.1082   63.1676 C   0  0  0  0  0  0  0  0  0  0  0  0
   30.8613   38.6807   62.4476 C   0  0  0  0  0  0  0  0  0  0  0  0
   31.1420   38.2362   61.1721 C   0  0  0  0  0  0  0  0  0  0  0  0
   30.3856   37.2252   60.6065 C   0  0  0  0  0  0  0  0  0  0  0  0
   29.3436   36.6534   61.3147 C   0  0  0  0  0  0  0  0  0  0  0  0
   29.0523   37.0886   62.5910 C   0  0  0  0  0  0  0  0  0  0  0  0
   29.7967   38.4664   66.9516 C   0  0  0  0  0  0  0  0  0  0  0  0
   30.1733   39.9439   67.0781 C   0  0  0  0  0  0  0  0  0  0  0  0
   28.3014   38.2959   67.2270 C   0  0  0  0  0  0  0  0  0  0  0  0
   32.3369   37.4153   67.0449 H   0  0  0  0  0  0  0  0  0  0  0  0
   33.1429   36.5211   65.7338 H   0  0  0  0  0  0  0  0  0  0  0  0
   32.7341   38.2400   65.5183 H   0  0  0  0  0  0  0  0  0  0  0  0
   31.1465   36.6966   64.3292 H   0  0  0  0  0  0  0  0  0  0  0  0
   29.6133   35.3174   65.6492 H   0  0  0  0  0  0  0  0  0  0  0  0
   31.2892   34.8600   66.0370 H   0  0  0  0  0  0  0  0  0  0  0  0
   30.3621   35.8806   67.1626 H   0  0  0  0  0  0  0  0  0  0  0  0
   31.4497   39.4730   62.8864 H   0  0  0  0  0  0  0  0  0  0  0  0
   31.9540   38.6783   60.6140 H   0  0  0  0  0  0  0  0  0  0  0  0
   30.6093   36.8811   59.6075 H   0  0  0  0  0  0  0  0  0  0  0  0
   28.7571   35.8643   60.8675 H   0  0  0  0  0  0  0  0  0  0  0  0
   28.2385   36.6418   63.1427 H   0  0  0  0  0  0  0  0  0  0  0  0
   30.3681   37.8827   67.6734 H   0  0  0  0  0  0  0  0  0  0  0  0
   30.1225   40.4171   66.0975 H   0  0  0  0  0  0  0  0  0  0  0  0
   29.4788   40.4390   67.7569 H   0  0  0  0  0  0  0  0  0  0  0  0
   31.1869   40.0283   67.4703 H   0  0  0  0  0  0  0  0  0  0  0  0
   28.1535   37.4841   67.9393 H   0  0  0  0  0  0  0  0  0  0  0  0
   27.9006   39.2206   67.6418 H   0  0  0  0  0  0  0  0  0  0  0  0
   27.7850   38.0610   66.2962 H   0  0  0  0  0  0  0  0  0  0  0  0
  1  2  1  0  0  0  0
  1 16  1  0  0  0  0
  1 17  1  0  0  0  0
  1 18  1  0  0  0  0
  2  3  1  0  0  0  0
  2  4  1  0  0  0  0
  2 19  1  0  0  0  0
  3 20  1  0  0  0  0
  3 21  1  0  0  0  0
  3 22  1  0  0  0  0
  4  5  1  0  0  0  0
  4 13  1  0  0  0  0
  5  6  2  0  0  0  0
  5  7  1  0  0  0  0
  7 12  2  0  0  0  0
  7  8  1  0  0  0  0
  8  9  2  0  0  0  0
  8 23  1  0  0  0  0
  9 10  1  0  0  0  0
  9 24  1  0  0  0  0
 10 11  2  0  0  0  0
 10 25  1  0  0  0  0
 11 12  1  0  0  0  0
 11 26  1  0  0  0  0
 12 27  1  0  0  0  0
 13 14  1  0  0  0  0
 13 15  1  0  0  0  0
 13 28  1  0  0  0  0
 14 29  1  0  0  0  0
 14 30  1  0  0  0  0
 14 31  1  0  0  0  0
 15 32  1  0  0  0  0
 15 33  1  0  0  0  0
 15 34  1  0  0  0  0
M  END
$$$$
