ZINC000000043527      none
 OpenBabel11202420153D

 28 29  0  0  0  0  0  0  0  0999 V2000
   33.5024   35.3341   56.7510 C   0  0  0  0  0  0  0  0  0  0  0  0
   33.2517   36.7807   57.0911 C   0  0  0  0  0  0  0  0  0  0  0  0
   33.6042   37.7813   56.2026 C   0  0  0  0  0  0  0  0  0  0  0  0
   33.3551   39.1000   56.5574 C   0  0  0  0  0  0  0  0  0  0  0  0
   32.7673   39.3724   57.7772 C   0  0  0  0  0  0  0  0  0  0  0  0
   32.4419   38.3976   58.6039 N   0  0  0  0  0  0  0  0  0  0  0  0
   32.6634   37.1278   58.3018 C   0  0  0  0  0  0  0  0  0  0  0  0
   32.3038   36.1299   59.2062 N   0  0  0  0  0  0  0  0  0  0  0  0
   31.7334   36.4597   60.3818 C   0  0  0  0  0  0  0  0  0  0  0  0
   31.5326   37.6271   60.6536 O   0  0  0  0  0  0  0  0  0  0  0  0
   31.3856   35.4948   61.2562 N   0  0  0  0  0  0  0  0  0  0  0  0
   30.7643   35.7192   62.5701 C   0  0  0  0  0  0  0  0  0  0  0  0
   30.5810   34.2989   63.1392 C   0  0  0  0  0  0  0  0  0  0  0  0
   31.1268   33.4255   62.0895 N   0  0  0  0  0  0  0  0  0  0  0  0
   31.5562   34.1795   61.0690 C   0  0  0  0  0  0  0  0  0  0  0  0
   32.0558   33.7123   60.0643 O   0  0  0  0  0  0  0  0  0  0  0  0
   32.6336   34.9264   56.2343 H   0  0  0  0  0  0  0  0  0  0  0  0
   34.3774   35.2591   56.1052 H   0  0  0  0  0  0  0  0  0  0  0  0
   33.6778   34.7706   57.6674 H   0  0  0  0  0  0  0  0  0  0  0  0
   34.0630   37.5418   55.2547 H   0  0  0  0  0  0  0  0  0  0  0  0
   33.6181   39.9044   55.8866 H   0  0  0  0  0  0  0  0  0  0  0  0
   32.5674   40.3965   58.0555 H   0  0  0  0  0  0  0  0  0  0  0  0
   32.4641   35.1982   58.9893 H   0  0  0  0  0  0  0  0  0  0  0  0
   31.4228   36.3075   63.2092 H   0  0  0  0  0  0  0  0  0  0  0  0
   29.7985   36.2118   62.4574 H   0  0  0  0  0  0  0  0  0  0  0  0
   29.5257   34.0828   63.3062 H   0  0  0  0  0  0  0  0  0  0  0  0
   31.1451   34.1834   64.0646 H   0  0  0  0  0  0  0  0  0  0  0  0
   31.1692   32.4573   62.1298 H   0  0  0  0  0  0  0  0  0  0  0  0
  1  2  1  0  0  0  0
  1 17  1  0  0  0  0
  1 18  1  0  0  0  0
  1 19  1  0  0  0  0
  2  7  2  0  0  0  0
  2  3  1  0  0  0  0
  3  4  2  0  0  0  0
  3 20  1  0  0  0  0
  4  5  1  0  0  0  0
  4 21  1  0  0  0  0
  5  6  2  0  0  0  0
  5 22  1  0  0  0  0
  6  7  1  0  0  0  0
  7  8  1  0  0  0  0
  8  9  1  0  0  0  0
  8 23  1  0  0  0  0
  9 10  2  0  0  0  0
  9 11  1  0  0  0  0
 11 15  1  0  0  0  0
 11 12  1  0  0  0  0
 12 13  1  0  0  0  0
 12 24  1  0  0  0  0
 12 25  1  0  0  0  0
 13 14  1  0  0  0  0
 13 26  1  0  0  0  0
 13 27  1  0  0  0  0
 14 15  1  0  0  0  0
 14 28  1  0  0  0  0
 15 16  2  0  0  0  0
M  END
$$$$
