ZINC000000002277      none
 OpenBabel11202420153D

 30 32  0  0  1  0  0  0  0  0999 V2000
   29.0739   40.6884   67.0649 C   0  0  0  0  0  0  0  0  0  0  0  0
   29.4059   39.6275   66.0473 C   0  0  0  0  0  0  0  0  0  0  0  0
   28.9720   39.7537   64.8085 N   0  0  0  0  0  0  0  0  0  0  0  0
   29.2357   38.8522   63.8807 C   0  0  0  0  0  0  0  0  0  0  0  0
   29.9836   37.7339   64.1814 C   0  0  0  0  0  0  0  0  0  0  0  0
   30.4597   37.5635   65.4737 C   0  0  0  0  0  0  0  0  0  0  0  0
   30.1658   38.5275   66.4245 C   0  0  0  0  0  0  0  0  0  0  0  0
   30.6121   38.3991   67.7018 O   0  0  0  0  0  0  0  0  0  0  0  0
   31.2339   36.2703   65.5023 C   0  0  0  0  0  0  0  0  0  0  0  0
   31.5230   35.9517   64.1278 O   0  0  0  0  0  0  0  0  0  0  0  0
   30.4510   36.5480   63.3736 C   0  0  2  0  0  0  0  0  0  0  0  0
   29.6374   35.8335   63.2485 H   0  0  0  0  0  0  0  0  0  0  0  0
   30.9536   37.0024   62.0276 C   0  0  0  0  0  0  0  0  0  0  0  0
   30.0996   37.0185   60.9406 C   0  0  0  0  0  0  0  0  0  0  0  0
   30.5599   37.4356   59.7059 C   0  0  0  0  0  0  0  0  0  0  0  0
   31.8757   37.8366   59.5579 C   0  0  0  0  0  0  0  0  0  0  0  0
   32.4548   38.3601   58.0072 Cl  0  0  0  0  0  0  0  0  0  0  0  0
   32.7299   37.8203   60.6460 C   0  0  0  0  0  0  0  0  0  0  0  0
   32.2684   37.4034   61.8803 C   0  0  0  0  0  0  0  0  0  0  0  0
   29.8521   41.4516   67.0610 H   0  0  0  0  0  0  0  0  0  0  0  0
   28.1161   41.1448   66.8148 H   0  0  0  0  0  0  0  0  0  0  0  0
   29.0135   40.2361   68.0548 H   0  0  0  0  0  0  0  0  0  0  0  0
   28.8620   38.9922   62.8771 H   0  0  0  0  0  0  0  0  0  0  0  0
   31.1311   37.5983   67.8584 H   0  0  0  0  0  0  0  0  0  0  0  0
   30.6309   35.4813   65.9519 H   0  0  0  0  0  0  0  0  0  0  0  0
   32.1609   36.3997   66.0608 H   0  0  0  0  0  0  0  0  0  0  0  0
   29.0725   36.7055   61.0563 H   0  0  0  0  0  0  0  0  0  0  0  0
   29.8937   37.4443   58.8559 H   0  0  0  0  0  0  0  0  0  0  0  0
   33.7571   38.1335   60.5311 H   0  0  0  0  0  0  0  0  0  0  0  0
   32.9349   37.3913   62.7301 H   0  0  0  0  0  0  0  0  0  0  0  0
  1  2  1  0  0  0  0
  1 20  1  0  0  0  0
  1 21  1  0  0  0  0
  1 22  1  0  0  0  0
  2  7  2  0  0  0  0
  2  3  1  0  0  0  0
  3  4  2  0  0  0  0
  4  5  1  0  0  0  0
  4 23  1  0  0  0  0
  5 11  1  0  0  0  0
  5  6  2  0  0  0  0
  6  7  1  0  0  0  0
  6  9  1  0  0  0  0
  7  8  1  0  0  0  0
  8 24  1  0  0  0  0
  9 10  1  0  0  0  0
  9 25  1  0  0  0  0
  9 26  1  0  0  0  0
 10 11  1  0  0  0  0
 11 12  1  6  0  0  0
 11 13  1  0  0  0  0
 13 19  2  0  0  0  0
 13 14  1  0  0  0  0
 14 15  2  0  0  0  0
 14 27  1  0  0  0  0
 15 16  1  0  0  0  0
 15 28  1  0  0  0  0
 16 17  1  0  0  0  0
 16 18  2  0  0  0  0
 18 19  1  0  0  0  0
 18 29  1  0  0  0  0
 19 30  1  0  0  0  0
M  END
$$$$
