ZINC000000018291      none
 OpenBabel11202420153D

 21 22  0  0  0  0  0  0  0  0999 V2000
   32.6771   35.7349   57.4034 O   0  0  0  0  0  0  0  0  0  0  0  0
   32.7597   36.9233   57.6729 C   0  0  0  0  0  0  0  0  0  0  0  0
   33.2077   37.7910   56.7478 N   0  0  0  0  0  0  0  0  0  0  0  0
   33.4643   37.4629   55.8718 H   0  0  0  0  0  0  0  0  0  0  0  0
   33.3025   39.1203   57.0168 C   0  0  0  0  0  0  0  0  0  0  0  0
   32.9570   39.6066   58.2271 C   0  0  0  0  0  0  0  0  0  0  0  0
   32.4919   38.7259   59.2279 C   0  0  0  0  0  0  0  0  0  0  0  0
   32.3932   37.3776   58.9462 C   0  0  0  0  0  0  0  0  0  0  0  0
   31.8977   36.3916   59.9689 C   0  0  0  0  0  0  0  0  0  0  0  0
   32.0270   36.9745   61.3767 C   0  0  0  0  0  0  0  0  0  0  0  0
   31.3873   38.3692   61.3951 C   0  0  0  0  0  0  0  0  0  0  0  0
   32.1448   39.2243   60.4708 N   0  0  0  0  0  0  0  0  0  0  0  0
   33.6582   39.7954   56.2523 H   0  0  0  0  0  0  0  0  0  0  0  0
   33.0358   40.6646   58.4293 H   0  0  0  0  0  0  0  0  0  0  0  0
   30.8515   36.1600   59.7691 H   0  0  0  0  0  0  0  0  0  0  0  0
   32.4859   35.4764   59.9021 H   0  0  0  0  0  0  0  0  0  0  0  0
   31.5140   36.3278   62.0885 H   0  0  0  0  0  0  0  0  0  0  0  0
   33.0806   37.0501   61.6455 H   0  0  0  0  0  0  0  0  0  0  0  0
   30.3491   38.3031   61.0699 H   0  0  0  0  0  0  0  0  0  0  0  0
   31.4335   38.7830   62.4025 H   0  0  0  0  0  0  0  0  0  0  0  0
   32.3972   40.1248   60.7283 H   0  0  0  0  0  0  0  0  0  0  0  0
  1  2  2  0  0  0  0
  2  8  1  0  0  0  0
  2  3  1  0  0  0  0
  3  4  1  0  0  0  0
  3  5  1  0  0  0  0
  5  6  2  0  0  0  0
  5 13  1  0  0  0  0
  6  7  1  0  0  0  0
  6 14  1  0  0  0  0
  7 12  1  0  0  0  0
  7  8  2  0  0  0  0
  8  9  1  0  0  0  0
  9 10  1  0  0  0  0
  9 15  1  0  0  0  0
  9 16  1  0  0  0  0
 10 11  1  0  0  0  0
 10 17  1  0  0  0  0
 10 18  1  0  0  0  0
 11 12  1  0  0  0  0
 11 19  1  0  0  0  0
 11 20  1  0  0  0  0
 12 21  1  0  0  0  0
M  END
$$$$
