ZINC000000042403      none
 OpenBabel11202420153D

 26 28  0  0  0  0  0  0  0  0999 V2000
   31.0110   33.7345   62.1947 C   0  0  0  0  0  0  0  0  0  0  0  0
   31.1310   35.0098   62.7173 C   0  0  0  0  0  0  0  0  0  0  0  0
   31.5970   36.0409   61.9280 C   0  0  0  0  0  0  0  0  0  0  0  0
   31.9476   35.7952   60.5997 C   0  0  0  0  0  0  0  0  0  0  0  0
   32.4478   36.8954   59.7482 C   0  0  0  0  0  0  0  0  0  0  0  0
   32.8140   36.8064   58.4835 N   0  0  0  0  0  0  0  0  0  0  0  0
   33.1949   38.0517   58.1296 C   0  0  0  0  0  0  0  0  0  0  0  0
   33.6946   38.4728   56.7967 C   0  0  0  0  0  0  0  0  0  0  0  0
   33.8044   37.5477   55.7550 C   0  0  0  0  0  0  0  0  0  0  0  0
   34.2758   37.9901   54.5310 C   0  0  0  0  0  0  0  0  0  0  0  0
   34.6198   39.3212   54.3797 C   0  0  0  0  0  0  0  0  0  0  0  0
   34.5058   40.1709   55.3820 N   0  0  0  0  0  0  0  0  0  0  0  0
   34.0562   39.7972   56.5626 C   0  0  0  0  0  0  0  0  0  0  0  0
   33.0433   38.8192   59.1783 N   0  0  0  0  0  0  0  0  0  0  0  0
   32.6169   38.1755   60.1135 O   0  0  0  0  0  0  0  0  0  0  0  0
   31.8186   34.5075   60.0770 C   0  0  0  0  0  0  0  0  0  0  0  0
   31.3571   33.4839   60.8788 C   0  0  0  0  0  0  0  0  0  0  0  0
   30.6456   32.9307   62.8168 H   0  0  0  0  0  0  0  0  0  0  0  0
   30.8598   35.1986   63.7455 H   0  0  0  0  0  0  0  0  0  0  0  0
   31.6906   37.0360   62.3374 H   0  0  0  0  0  0  0  0  0  0  0  0
   33.5287   36.5137   55.9013 H   0  0  0  0  0  0  0  0  0  0  0  0
   34.3735   37.3035   53.7031 H   0  0  0  0  0  0  0  0  0  0  0  0
   34.9881   39.6700   53.4263 H   0  0  0  0  0  0  0  0  0  0  0  0
   33.9721   40.5234   57.3576 H   0  0  0  0  0  0  0  0  0  0  0  0
   32.0836   34.3119   59.0486 H   0  0  0  0  0  0  0  0  0  0  0  0
   31.2617   32.4860   60.4771 H   0  0  0  0  0  0  0  0  0  0  0  0
  1 17  2  0  0  0  0
  1  2  1  0  0  0  0
  1 18  1  0  0  0  0
  2  3  2  0  0  0  0
  2 19  1  0  0  0  0
  3  4  1  0  0  0  0
  3 20  1  0  0  0  0
  4  5  1  0  0  0  0
  4 16  2  0  0  0  0
  5 15  1  0  0  0  0
  5  6  2  0  0  0  0
  6  7  1  0  0  0  0
  7  8  1  0  0  0  0
  7 14  2  0  0  0  0
  8 13  2  0  0  0  0
  8  9  1  0  0  0  0
  9 10  2  0  0  0  0
  9 21  1  0  0  0  0
 10 11  1  0  0  0  0
 10 22  1  0  0  0  0
 11 12  2  0  0  0  0
 11 23  1  0  0  0  0
 12 13  1  0  0  0  0
 13 24  1  0  0  0  0
 14 15  1  0  0  0  0
 16 17  1  0  0  0  0
 16 25  1  0  0  0  0
 17 26  1  0  0  0  0
M  END
$$$$
