ZINC000000020936      none
 OpenBabel11202420153D

 36 38  0  0  0  0  0  0  0  0999 V2000
   32.5480   34.4590   58.5838 C   0  0  0  0  0  0  0  0  0  0  0  0
   31.9820   33.4864   59.4645 O   0  0  0  0  0  0  0  0  0  0  0  0
   32.6531   33.3800   60.7217 C   0  0  0  0  0  0  0  0  0  0  0  0
   32.2009   34.4953   61.6285 C   0  0  0  0  0  0  0  0  0  0  0  0
   32.6535   34.5864   62.7500 O   0  0  0  0  0  0  0  0  0  0  0  0
   31.2933   35.3917   61.1932 N   0  0  0  0  0  0  0  0  0  0  0  0
   30.8744   36.4245   62.0330 C   0  0  0  0  0  0  0  0  0  0  0  0
   30.2602   36.1335   63.2427 C   0  0  0  0  0  0  0  0  0  0  0  0
   29.8460   37.1570   64.0724 C   0  0  0  0  0  0  0  0  0  0  0  0
   30.0395   38.4779   63.7048 C   0  0  0  0  0  0  0  0  0  0  0  0
   30.6482   38.7848   62.5060 C   0  0  0  0  0  0  0  0  0  0  0  0
   31.0717   37.7605   61.6580 C   0  0  0  0  0  0  0  0  0  0  0  0
   31.7238   38.0827   60.3723 C   0  0  0  0  0  0  0  0  0  0  0  0
   31.6608   37.3462   59.2893 N   0  0  0  0  0  0  0  0  0  0  0  0
   32.3710   37.9350   58.2962 C   0  0  0  0  0  0  0  0  0  0  0  0
   32.6323   37.5889   56.9665 C   0  0  0  0  0  0  0  0  0  0  0  0
   33.4037   38.4055   56.1895 C   0  0  0  0  0  0  0  0  0  0  0  0
   33.9335   39.5799   56.7052 C   0  0  0  0  0  0  0  0  0  0  0  0
   33.6898   39.9414   58.0135 C   0  0  0  0  0  0  0  0  0  0  0  0
   32.9083   39.1247   58.8188 C   0  0  0  0  0  0  0  0  0  0  0  0
   32.4800   39.1981   60.1303 N   0  0  0  0  0  0  0  0  0  0  0  0
   32.6799   39.9063   60.7624 H   0  0  0  0  0  0  0  0  0  0  0  0
   32.5083   35.4416   59.0539 H   0  0  0  0  0  0  0  0  0  0  0  0
   33.5854   34.1986   58.3735 H   0  0  0  0  0  0  0  0  0  0  0  0
   31.9824   34.4786   57.6524 H   0  0  0  0  0  0  0  0  0  0  0  0
   33.7296   33.4520   60.5660 H   0  0  0  0  0  0  0  0  0  0  0  0
   32.4157   32.4200   61.1801 H   0  0  0  0  0  0  0  0  0  0  0  0
   30.9313   35.3189   60.2963 H   0  0  0  0  0  0  0  0  0  0  0  0
   30.1060   35.1054   63.5359 H   0  0  0  0  0  0  0  0  0  0  0  0
   29.3726   36.9257   65.0151 H   0  0  0  0  0  0  0  0  0  0  0  0
   29.7125   39.2717   64.3602 H   0  0  0  0  0  0  0  0  0  0  0  0
   30.7965   39.8166   62.2234 H   0  0  0  0  0  0  0  0  0  0  0  0
   32.2250   36.6773   56.5548 H   0  0  0  0  0  0  0  0  0  0  0  0
   33.6031   38.1347   55.1632 H   0  0  0  0  0  0  0  0  0  0  0  0
   34.5413   40.2149   56.0777 H   0  0  0  0  0  0  0  0  0  0  0  0
   34.1053   40.8562   58.4097 H   0  0  0  0  0  0  0  0  0  0  0  0
  1  2  1  0  0  0  0
  1 23  1  0  0  0  0
  1 24  1  0  0  0  0
  1 25  1  0  0  0  0
  2  3  1  0  0  0  0
  3  4  1  0  0  0  0
  3 26  1  0  0  0  0
  3 27  1  0  0  0  0
  4  5  2  0  0  0  0
  4  6  1  0  0  0  0
  6  7  1  0  0  0  0
  6 28  1  0  0  0  0
  7 12  2  0  0  0  0
  7  8  1  0  0  0  0
  8  9  2  0  0  0  0
  8 29  1  0  0  0  0
  9 10  1  0  0  0  0
  9 30  1  0  0  0  0
 10 11  2  0  0  0  0
 10 31  1  0  0  0  0
 11 12  1  0  0  0  0
 11 32  1  0  0  0  0
 12 13  1  0  0  0  0
 13 21  1  0  0  0  0
 13 14  2  0  0  0  0
 14 15  1  0  0  0  0
 15 20  2  0  0  0  0
 15 16  1  0  0  0  0
 16 17  2  0  0  0  0
 16 33  1  0  0  0  0
 17 18  1  0  0  0  0
 17 34  1  0  0  0  0
 18 19  2  0  0  0  0
 18 35  1  0  0  0  0
 19 20  1  0  0  0  0
 19 36  1  0  0  0  0
 20 21  1  0  0  0  0
 21 22  1  0  0  0  0
M  END
$$$$
