ZINC000000029512      none
 OpenBabel11202420163D

 26 26  0  0  0  0  0  0  0  0999 V2000
   30.3237   39.0589   63.6927 C   0  0  0  0  0  0  0  0  0  0  0  0
   31.1015   38.8249   62.4889 O   0  0  0  0  0  0  0  0  0  0  0  0
   30.7253   37.7926   61.7086 C   0  0  0  0  0  0  0  0  0  0  0  0
   29.7734   37.1068   62.0254 O   0  0  0  0  0  0  0  0  0  0  0  0
   31.4679   37.4956   60.4717 C   0  0  0  0  0  0  0  0  0  0  0  0
   32.0972   38.5245   59.7647 C   0  0  0  0  0  0  0  0  0  0  0  0
   32.7896   38.2399   58.6087 C   0  0  0  0  0  0  0  0  0  0  0  0
   32.8667   36.9373   58.1407 C   0  0  0  0  0  0  0  0  0  0  0  0
   32.2517   35.9106   58.8268 C   0  0  0  0  0  0  0  0  0  0  0  0
   31.5484   36.1773   59.9953 C   0  0  0  0  0  0  0  0  0  0  0  0
   30.9287   35.1458   60.6876 N   0  0  0  0  0  0  0  0  0  0  0  0
   31.7541   34.3267   61.8666 S   0  0  0  0  0  0  0  0  0  0  0  0
   32.5523   32.9540   60.9898 C   0  0  0  0  0  0  0  0  0  0  0  0
   32.7251   35.2572   62.3255 O   0  0  0  0  0  0  0  0  0  0  0  0
   30.7378   33.8413   62.7331 O   0  0  0  0  0  0  0  0  0  0  0  0
   30.7315   39.9166   64.2276 H   0  0  0  0  0  0  0  0  0  0  0  0
   29.2869   39.2590   63.4222 H   0  0  0  0  0  0  0  0  0  0  0  0
   30.3690   38.1771   64.3316 H   0  0  0  0  0  0  0  0  0  0  0  0
   32.0401   39.5411   60.1245 H   0  0  0  0  0  0  0  0  0  0  0  0
   33.2754   39.0360   58.0639 H   0  0  0  0  0  0  0  0  0  0  0  0
   33.4121   36.7248   57.2331 H   0  0  0  0  0  0  0  0  0  0  0  0
   32.3132   34.8992   58.4531 H   0  0  0  0  0  0  0  0  0  0  0  0
   30.0120   34.9049   60.4809 H   0  0  0  0  0  0  0  0  0  0  0  0
   33.2208   33.3505   60.2257 H   0  0  0  0  0  0  0  0  0  0  0  0
   33.1247   32.3544   61.6977 H   0  0  0  0  0  0  0  0  0  0  0  0
   31.7910   32.3319   60.5189 H   0  0  0  0  0  0  0  0  0  0  0  0
  1  2  1  0  0  0  0
  1 16  1  0  0  0  0
  1 17  1  0  0  0  0
  1 18  1  0  0  0  0
  2  3  1  0  0  0  0
  3  4  2  0  0  0  0
  3  5  1  0  0  0  0
  5 10  2  0  0  0  0
  5  6  1  0  0  0  0
  6  7  2  0  0  0  0
  6 19  1  0  0  0  0
  7  8  1  0  0  0  0
  7 20  1  0  0  0  0
  8  9  2  0  0  0  0
  8 21  1  0  0  0  0
  9 10  1  0  0  0  0
  9 22  1  0  0  0  0
 10 11  1  0  0  0  0
 11 12  1  0  0  0  0
 11 23  1  0  0  0  0
 12 13  1  0  0  0  0
 12 14  2  0  0  0  0
 12 15  2  0  0  0  0
 13 24  1  0  0  0  0
 13 25  1  0  0  0  0
 13 26  1  0  0  0  0
M  END
$$$$
