ZINC000000015216      none
 OpenBabel11202420153D

 30 31  0  0  0  0  0  0  0  0999 V2000
   30.6405   34.5266   59.4913 C   0  0  0  0  0  0  0  0  0  0  0  0
   31.9139   35.1534   59.6573 O   0  0  0  0  0  0  0  0  0  0  0  0
   32.4284   35.7992   58.5792 C   0  0  0  0  0  0  0  0  0  0  0  0
   33.2407   35.1142   57.6844 C   0  0  0  0  0  0  0  0  0  0  0  0
   33.7701   35.7646   56.5924 C   0  0  0  0  0  0  0  0  0  0  0  0
   33.4895   37.1208   56.3819 C   0  0  0  0  0  0  0  0  0  0  0  0
   34.0525   37.8172   55.2190 C   0  0  0  0  0  0  0  0  0  0  0  0
   34.3654   39.1266   55.1757 C   0  0  0  0  0  0  0  0  0  0  0  0
   34.8870   39.5250   53.9373 C   0  0  0  0  0  0  0  0  0  0  0  0
   35.2442   40.6489   53.6457 O   0  0  0  0  0  0  0  0  0  0  0  0
   34.9301   38.3188   53.0254 C   0  0  0  0  0  0  0  0  0  0  0  0
   34.3751   37.1727   53.8914 C   0  0  0  0  0  0  0  0  0  0  0  0
   32.6702   37.8103   57.2849 C   0  0  0  0  0  0  0  0  0  0  0  0
   32.1441   37.1498   58.3768 C   0  0  0  0  0  0  0  0  0  0  0  0
   31.3478   37.8158   59.2554 O   0  0  0  0  0  0  0  0  0  0  0  0
   31.9920   38.4519   60.3610 C   0  0  0  0  0  0  0  0  0  0  0  0
   30.3465   34.0485   60.4256 H   0  0  0  0  0  0  0  0  0  0  0  0
   29.8989   35.2771   59.2181 H   0  0  0  0  0  0  0  0  0  0  0  0
   30.7051   33.7759   58.7035 H   0  0  0  0  0  0  0  0  0  0  0  0
   33.4577   34.0686   57.8458 H   0  0  0  0  0  0  0  0  0  0  0  0
   34.4010   35.2293   55.8983 H   0  0  0  0  0  0  0  0  0  0  0  0
   34.2289   39.7997   56.0092 H   0  0  0  0  0  0  0  0  0  0  0  0
   34.3012   38.4797   52.1498 H   0  0  0  0  0  0  0  0  0  0  0  0
   35.9554   38.1048   52.7237 H   0  0  0  0  0  0  0  0  0  0  0  0
   35.1260   36.3932   54.0202 H   0  0  0  0  0  0  0  0  0  0  0  0
   33.4726   36.7611   53.4398 H   0  0  0  0  0  0  0  0  0  0  0  0
   32.4504   38.8559   57.1270 H   0  0  0  0  0  0  0  0  0  0  0  0
   31.2444   38.9453   60.9821 H   0  0  0  0  0  0  0  0  0  0  0  0
   32.5202   37.7044   60.9529 H   0  0  0  0  0  0  0  0  0  0  0  0
   32.7026   39.1911   59.9914 H   0  0  0  0  0  0  0  0  0  0  0  0
  1  2  1  0  0  0  0
  1 17  1  0  0  0  0
  1 18  1  0  0  0  0
  1 19  1  0  0  0  0
  2  3  1  0  0  0  0
  3 14  2  0  0  0  0
  3  4  1  0  0  0  0
  4  5  2  0  0  0  0
  4 20  1  0  0  0  0
  5  6  1  0  0  0  0
  5 21  1  0  0  0  0
  6  7  1  0  0  0  0
  6 13  2  0  0  0  0
  7 12  1  0  0  0  0
  7  8  2  0  0  0  0
  8  9  1  0  0  0  0
  8 22  1  0  0  0  0
  9 10  2  0  0  0  0
  9 11  1  0  0  0  0
 11 12  1  0  0  0  0
 11 23  1  0  0  0  0
 11 24  1  0  0  0  0
 12 25  1  0  0  0  0
 12 26  1  0  0  0  0
 13 14  1  0  0  0  0
 13 27  1  0  0  0  0
 14 15  1  0  0  0  0
 15 16  1  0  0  0  0
 16 28  1  0  0  0  0
 16 29  1  0  0  0  0
 16 30  1  0  0  0  0
M  END
$$$$
