ZINC000000004250      none
 OpenBabel11202420153D

 40 42  0  0  0  0  0  0  0  0999 V2000
   30.2230   35.9584   65.1003 O   0  0  0  0  0  0  0  0  0  0  0  0
   30.5238   36.9406   64.4506 C   0  0  0  0  0  0  0  0  0  0  0  0
   31.0030   38.1608   65.1340 C   0  0  0  0  0  0  0  0  0  0  0  0
   32.1535   38.1249   65.9314 C   0  0  0  0  0  0  0  0  0  0  0  0
   32.5629   39.2955   66.5447 C   0  0  0  0  0  0  0  0  0  0  0  0
   31.8232   40.4504   66.3619 C   0  0  0  0  0  0  0  0  0  0  0  0
   30.7398   40.4531   65.6092 N   0  0  0  0  0  0  0  0  0  0  0  0
   30.3133   39.3662   65.0002 C   0  0  0  0  0  0  0  0  0  0  0  0
   30.4203   36.9174   63.1070 N   0  0  0  0  0  0  0  0  0  0  0  0
   29.9454   35.7141   62.4071 C   0  0  0  0  0  0  0  0  0  0  0  0
   30.9475   35.3669   61.3010 C   0  0  0  0  0  0  0  0  0  0  0  0
   31.1537   36.5427   60.4448 N   0  0  0  0  0  0  0  0  0  0  0  0
   31.9328   36.2206   59.3313 C   0  0  0  0  0  0  0  0  0  0  0  0
   32.3979   34.9228   59.1588 C   0  0  0  0  0  0  0  0  0  0  0  0
   33.1679   34.6078   58.0568 C   0  0  0  0  0  0  0  0  0  0  0  0
   33.4764   35.5824   57.1252 C   0  0  0  0  0  0  0  0  0  0  0  0
   33.0148   36.8748   57.2936 C   0  0  0  0  0  0  0  0  0  0  0  0
   33.3530   37.9334   56.2757 C   0  0  0  0  0  0  0  0  0  0  0  0
   34.1364   37.3720   55.2617 F   0  0  0  0  0  0  0  0  0  0  0  0
   32.1730   38.4442   55.7245 F   0  0  0  0  0  0  0  0  0  0  0  0
   34.0636   38.9667   56.8959 F   0  0  0  0  0  0  0  0  0  0  0  0
   32.2488   37.1981   58.3966 C   0  0  0  0  0  0  0  0  0  0  0  0
   31.7483   37.6539   61.1997 C   0  0  0  0  0  0  0  0  0  0  0  0
   30.7790   38.0947   62.3017 C   0  0  0  0  0  0  0  0  0  0  0  0
   32.7094   37.2080   66.0606 H   0  0  0  0  0  0  0  0  0  0  0  0
   33.4480   39.3067   67.1635 H   0  0  0  0  0  0  0  0  0  0  0  0
   32.1379   41.3645   66.8432 H   0  0  0  0  0  0  0  0  0  0  0  0
   29.4217   39.4082   64.3921 H   0  0  0  0  0  0  0  0  0  0  0  0
   28.9673   35.9084   61.9672 H   0  0  0  0  0  0  0  0  0  0  0  0
   29.8753   34.8848   63.1111 H   0  0  0  0  0  0  0  0  0  0  0  0
   30.5572   34.5444   60.7015 H   0  0  0  0  0  0  0  0  0  0  0  0
   31.8966   35.0721   61.7488 H   0  0  0  0  0  0  0  0  0  0  0  0
   32.1577   34.1613   59.8860 H   0  0  0  0  0  0  0  0  0  0  0  0
   33.5295   33.5991   57.9219 H   0  0  0  0  0  0  0  0  0  0  0  0
   34.0788   35.3334   56.2641 H   0  0  0  0  0  0  0  0  0  0  0  0
   31.8923   38.2089   58.5297 H   0  0  0  0  0  0  0  0  0  0  0  0
   32.6861   37.3275   61.6493 H   0  0  0  0  0  0  0  0  0  0  0  0
   31.9385   38.4900   60.5269 H   0  0  0  0  0  0  0  0  0  0  0  0
   29.8810   38.5179   61.8517 H   0  0  0  0  0  0  0  0  0  0  0  0
   31.2599   38.8394   62.9359 H   0  0  0  0  0  0  0  0  0  0  0  0
  1  2  2  0  0  0  0
  2  3  1  0  0  0  0
  2  9  1  0  0  0  0
  3  8  2  0  0  0  0
  3  4  1  0  0  0  0
  4  5  2  0  0  0  0
  4 25  1  0  0  0  0
  5  6  1  0  0  0  0
  5 26  1  0  0  0  0
  6  7  2  0  0  0  0
  6 27  1  0  0  0  0
  7  8  1  0  0  0  0
  8 28  1  0  0  0  0
  9 24  1  0  0  0  0
  9 10  1  0  0  0  0
 10 11  1  0  0  0  0
 10 29  1  0  0  0  0
 10 30  1  0  0  0  0
 11 12  1  0  0  0  0
 11 31  1  0  0  0  0
 11 32  1  0  0  0  0
 12 13  1  0  0  0  0
 12 23  1  0  0  0  0
 13 22  2  0  0  0  0
 13 14  1  0  0  0  0
 14 15  2  0  0  0  0
 14 33  1  0  0  0  0
 15 16  1  0  0  0  0
 15 34  1  0  0  0  0
 16 17  2  0  0  0  0
 16 35  1  0  0  0  0
 17 18  1  0  0  0  0
 17 22  1  0  0  0  0
 18 19  1  0  0  0  0
 18 20  1  0  0  0  0
 18 21  1  0  0  0  0
 22 36  1  0  0  0  0
 23 24  1  0  0  0  0
 23 37  1  0  0  0  0
 23 38  1  0  0  0  0
 24 39  1  0  0  0  0
 24 40  1  0  0  0  0
M  END
$$$$
