ZINC000000036804      none
 OpenBabel11202420153D

 36 39  0  0  0  0  0  0  0  0999 V2000
   30.2467   37.6305   61.1296 O   0  0  0  0  0  0  0  0  0  0  0  0
   31.4285   37.4594   61.3384 C   0  0  0  0  0  0  0  0  0  0  0  0
   32.4157   37.5549   60.2038 C   0  0  0  0  0  0  0  0  0  0  0  0
   31.6715   37.8751   58.9059 C   0  0  0  0  0  0  0  0  0  0  0  0
   32.6311   37.9679   57.8028 N   0  0  0  0  0  0  0  0  0  0  0  0
   33.2729   39.0812   57.3963 C   0  0  0  0  0  0  0  0  0  0  0  0
   33.1478   40.1845   57.8920 O   0  0  0  0  0  0  0  0  0  0  0  0
   34.0719   38.7832   56.3598 O   0  0  0  0  0  0  0  0  0  0  0  0
   33.9596   37.4623   56.0762 C   0  0  0  0  0  0  0  0  0  0  0  0
   34.5491   36.6466   55.1231 C   0  0  0  0  0  0  0  0  0  0  0  0
   34.2313   35.3033   55.0743 C   0  0  0  0  0  0  0  0  0  0  0  0
   33.3260   34.7666   55.9733 C   0  0  0  0  0  0  0  0  0  0  0  0
   32.7335   35.5715   56.9266 C   0  0  0  0  0  0  0  0  0  0  0  0
   33.0475   36.9205   56.9816 C   0  0  0  0  0  0  0  0  0  0  0  0
   31.8596   37.1838   62.5853 N   0  0  0  0  0  0  0  0  0  0  0  0
   32.5272   36.0787   62.9723 C   0  0  0  0  0  0  0  0  0  0  0  0
   32.8420   35.1580   62.2443 O   0  0  0  0  0  0  0  0  0  0  0  0
   32.7913   36.1530   64.2860 O   0  0  0  0  0  0  0  0  0  0  0  0
   32.2957   37.3157   64.7766 C   0  0  0  0  0  0  0  0  0  0  0  0
   32.2910   37.8819   66.0417 C   0  0  0  0  0  0  0  0  0  0  0  0
   31.6941   39.1109   66.2441 C   0  0  0  0  0  0  0  0  0  0  0  0
   31.0999   39.7810   65.1889 C   0  0  0  0  0  0  0  0  0  0  0  0
   31.1000   39.2241   63.9246 C   0  0  0  0  0  0  0  0  0  0  0  0
   31.7015   37.9940   63.7133 C   0  0  0  0  0  0  0  0  0  0  0  0
   32.9398   36.6052   60.0973 H   0  0  0  0  0  0  0  0  0  0  0  0
   33.1358   38.3457   60.4143 H   0  0  0  0  0  0  0  0  0  0  0  0
   31.1474   38.8248   59.0124 H   0  0  0  0  0  0  0  0  0  0  0  0
   30.9513   37.0843   58.6954 H   0  0  0  0  0  0  0  0  0  0  0  0
   35.2594   37.0600   54.4224 H   0  0  0  0  0  0  0  0  0  0  0  0
   34.6916   34.6688   54.3314 H   0  0  0  0  0  0  0  0  0  0  0  0
   33.0821   33.7154   55.9290 H   0  0  0  0  0  0  0  0  0  0  0  0
   32.0271   35.1511   57.6271 H   0  0  0  0  0  0  0  0  0  0  0  0
   32.7530   37.3625   66.8682 H   0  0  0  0  0  0  0  0  0  0  0  0
   31.6912   39.5514   67.2302 H   0  0  0  0  0  0  0  0  0  0  0  0
   30.6347   40.7414   65.3544 H   0  0  0  0  0  0  0  0  0  0  0  0
   30.6363   39.7484   63.1019 H   0  0  0  0  0  0  0  0  0  0  0  0
  1  2  2  0  0  0  0
  2  3  1  0  0  0  0
  2 15  1  0  0  0  0
  3  4  1  0  0  0  0
  3 25  1  0  0  0  0
  3 26  1  0  0  0  0
  4  5  1  0  0  0  0
  4 27  1  0  0  0  0
  4 28  1  0  0  0  0
  5 14  1  0  0  0  0
  5  6  1  0  0  0  0
  6  7  2  0  0  0  0
  6  8  1  0  0  0  0
  8  9  1  0  0  0  0
  9 14  2  0  0  0  0
  9 10  1  0  0  0  0
 10 11  2  0  0  0  0
 10 29  1  0  0  0  0
 11 12  1  0  0  0  0
 11 30  1  0  0  0  0
 12 13  2  0  0  0  0
 12 31  1  0  0  0  0
 13 14  1  0  0  0  0
 13 32  1  0  0  0  0
 15 24  1  0  0  0  0
 15 16  1  0  0  0  0
 16 17  2  0  0  0  0
 16 18  1  0  0  0  0
 18 19  1  0  0  0  0
 19 24  2  0  0  0  0
 19 20  1  0  0  0  0
 20 21  2  0  0  0  0
 20 33  1  0  0  0  0
 21 22  1  0  0  0  0
 21 34  1  0  0  0  0
 22 23  2  0  0  0  0
 22 35  1  0  0  0  0
 23 24  1  0  0  0  0
 23 36  1  0  0  0  0
M  END
$$$$
