ZINC000000045544      none
 OpenBabel11202420153D

 20 20  0  0  0  0  0  0  0  0999 V2000
   33.9152   33.8752   57.0021 C   0  0  0  0  0  0  0  0  0  0  0  0
   33.1243   34.4157   58.1654 C   0  0  0  0  0  0  0  0  0  0  0  0
   32.8421   33.6912   59.0955 O   0  0  0  0  0  0  0  0  0  0  0  0
   32.7259   35.7033   58.1693 N   0  0  0  0  0  0  0  0  0  0  0  0
   33.0396   36.5090   57.1353 C   0  0  0  0  0  0  0  0  0  0  0  0
   32.5939   37.9486   57.1397 C   0  0  0  0  0  0  0  0  0  0  0  0
   33.6800   36.0755   56.2019 O   0  0  0  0  0  0  0  0  0  0  0  0
   31.9895   36.2017   59.2426 C   0  0  0  0  0  0  0  0  0  0  0  0
   32.3610   37.1798   60.0069 N   0  0  0  0  0  0  0  0  0  0  0  0
   31.5375   37.5260   60.9776 C   0  0  0  0  0  0  0  0  0  0  0  0
   30.4195   36.7994   61.0424 C   0  0  0  0  0  0  0  0  0  0  0  0
   30.4680   35.6067   59.7466 S   0  0  0  0  0  0  0  0  0  0  0  0
   33.2328   33.5772   56.2060 H   0  0  0  0  0  0  0  0  0  0  0  0
   34.5905   34.6466   56.6323 H   0  0  0  0  0  0  0  0  0  0  0  0
   34.4941   33.0106   57.3269 H   0  0  0  0  0  0  0  0  0  0  0  0
   32.1852   38.1994   58.1185 H   0  0  0  0  0  0  0  0  0  0  0  0
   33.4464   38.5934   56.9258 H   0  0  0  0  0  0  0  0  0  0  0  0
   31.8282   38.0942   56.3779 H   0  0  0  0  0  0  0  0  0  0  0  0
   31.7525   38.3292   61.6668 H   0  0  0  0  0  0  0  0  0  0  0  0
   29.6246   36.9210   61.7634 H   0  0  0  0  0  0  0  0  0  0  0  0
  1  2  1  0  0  0  0
  1 13  1  0  0  0  0
  1 14  1  0  0  0  0
  1 15  1  0  0  0  0
  2  3  2  0  0  0  0
  2  4  1  0  0  0  0
  4  5  1  0  0  0  0
  4  8  1  0  0  0  0
  5  6  1  0  0  0  0
  5  7  2  0  0  0  0
  6 16  1  0  0  0  0
  6 17  1  0  0  0  0
  6 18  1  0  0  0  0
  8 12  1  0  0  0  0
  8  9  2  0  0  0  0
  9 10  1  0  0  0  0
 10 11  2  0  0  0  0
 10 19  1  0  0  0  0
 11 12  1  0  0  0  0
 11 20  1  0  0  0  0
M  END
$$$$
