ZINC000000057859      none
 OpenBabel11202420153D

 43 45  0  0  0  0  0  0  0  0999 V2000
   33.4942   39.9673   57.3128 C   0  0  0  0  0  0  0  0  0  0  0  0
   33.4431   38.7319   56.5965 O   0  0  0  0  0  0  0  0  0  0  0  0
   33.0826   37.6272   57.2982 C   0  0  0  0  0  0  0  0  0  0  0  0
   33.0038   36.3947   56.6538 C   0  0  0  0  0  0  0  0  0  0  0  0
   32.6418   35.2747   57.3472 C   0  0  0  0  0  0  0  0  0  0  0  0
   32.3498   35.3672   58.7082 C   0  0  0  0  0  0  0  0  0  0  0  0
   31.9556   34.1798   59.4896 C   0  0  0  0  0  0  0  0  0  0  0  0
   31.8726   33.0783   58.9711 O   0  0  0  0  0  0  0  0  0  0  0  0
   31.6835   34.3670   60.8644 C   0  0  0  0  0  0  0  0  0  0  0  0
   31.7876   35.6112   61.4060 C   0  0  0  0  0  0  0  0  0  0  0  0
   31.4992   35.7862   62.8419 C   0  0  0  0  0  0  0  0  0  0  0  0
   30.5729   34.9541   63.4763 C   0  0  0  0  0  0  0  0  0  0  0  0
   30.3078   35.1177   64.8233 C   0  0  0  0  0  0  0  0  0  0  0  0
   29.4097   34.3054   65.4423 O   0  0  0  0  0  0  0  0  0  0  0  0
   28.7823   33.3021   64.6412 C   0  0  0  0  0  0  0  0  0  0  0  0
   30.9556   36.1150   65.5455 C   0  0  0  0  0  0  0  0  0  0  0  0
   30.6913   36.2782   66.8689 O   0  0  0  0  0  0  0  0  0  0  0  0
   30.9594   35.1669   67.7252 C   0  0  0  0  0  0  0  0  0  0  0  0
   31.8747   36.9503   64.9146 C   0  0  0  0  0  0  0  0  0  0  0  0
   32.5048   37.9255   65.6228 O   0  0  0  0  0  0  0  0  0  0  0  0
   33.7413   37.5769   66.2486 C   0  0  0  0  0  0  0  0  0  0  0  0
   32.1474   36.7883   63.5690 C   0  0  0  0  0  0  0  0  0  0  0  0
   32.1423   36.6854   60.6832 O   0  0  0  0  0  0  0  0  0  0  0  0
   32.4214   36.6071   59.3653 C   0  0  0  0  0  0  0  0  0  0  0  0
   32.7857   37.7367   58.6467 C   0  0  0  0  0  0  0  0  0  0  0  0
   33.7948   40.7674   56.6363 H   0  0  0  0  0  0  0  0  0  0  0  0
   32.5097   40.1900   57.7240 H   0  0  0  0  0  0  0  0  0  0  0  0
   34.2173   39.8870   58.1245 H   0  0  0  0  0  0  0  0  0  0  0  0
   33.2297   36.3242   55.6001 H   0  0  0  0  0  0  0  0  0  0  0  0
   32.5815   34.3212   56.8436 H   0  0  0  0  0  0  0  0  0  0  0  0
   31.3953   33.5282   61.4807 H   0  0  0  0  0  0  0  0  0  0  0  0
   30.0672   34.1818   62.9158 H   0  0  0  0  0  0  0  0  0  0  0  0
   29.5425   32.6382   64.2294 H   0  0  0  0  0  0  0  0  0  0  0  0
   28.0911   32.7258   65.2562 H   0  0  0  0  0  0  0  0  0  0  0  0
   28.2351   33.7770   63.8269 H   0  0  0  0  0  0  0  0  0  0  0  0
   30.3627   34.3114   67.4090 H   0  0  0  0  0  0  0  0  0  0  0  0
   32.0178   34.9125   67.6682 H   0  0  0  0  0  0  0  0  0  0  0  0
   30.7027   35.4283   68.7517 H   0  0  0  0  0  0  0  0  0  0  0  0
   34.1369   38.4429   66.7791 H   0  0  0  0  0  0  0  0  0  0  0  0
   33.5744   36.7634   66.9548 H   0  0  0  0  0  0  0  0  0  0  0  0
   34.4555   37.2582   65.4895 H   0  0  0  0  0  0  0  0  0  0  0  0
   32.8609   37.4352   63.0805 H   0  0  0  0  0  0  0  0  0  0  0  0
   32.8492   38.6955   59.1396 H   0  0  0  0  0  0  0  0  0  0  0  0
  1  2  1  0  0  0  0
  1 26  1  0  0  0  0
  1 27  1  0  0  0  0
  1 28  1  0  0  0  0
  2  3  1  0  0  0  0
  3 25  2  0  0  0  0
  3  4  1  0  0  0  0
  4  5  2  0  0  0  0
  4 29  1  0  0  0  0
  5  6  1  0  0  0  0
  5 30  1  0  0  0  0
  6 24  2  0  0  0  0
  6  7  1  0  0  0  0
  7  8  2  0  0  0  0
  7  9  1  0  0  0  0
  9 10  2  0  0  0  0
  9 31  1  0  0  0  0
 10 11  1  0  0  0  0
 10 23  1  0  0  0  0
 11 22  2  0  0  0  0
 11 12  1  0  0  0  0
 12 13  2  0  0  0  0
 12 32  1  0  0  0  0
 13 14  1  0  0  0  0
 13 16  1  0  0  0  0
 14 15  1  0  0  0  0
 15 33  1  0  0  0  0
 15 34  1  0  0  0  0
 15 35  1  0  0  0  0
 16 17  1  0  0  0  0
 16 19  2  0  0  0  0
 17 18  1  0  0  0  0
 18 36  1  0  0  0  0
 18 37  1  0  0  0  0
 18 38  1  0  0  0  0
 19 20  1  0  0  0  0
 19 22  1  0  0  0  0
 20 21  1  0  0  0  0
 21 39  1  0  0  0  0
 21 40  1  0  0  0  0
 21 41  1  0  0  0  0
 22 42  1  0  0  0  0
 23 24  1  0  0  0  0
 24 25  1  0  0  0  0
 25 43  1  0  0  0  0
M  END
$$$$
