ZINC000000036793      none
 OpenBabel11202420153D

 41 43  0  0  0  0  0  0  0  0999 V2000
   33.1895   40.8220   58.8310 N   0  0  0  0  0  0  0  0  0  0  0  0
   33.4139   39.8084   57.9188 C   0  0  0  0  0  0  0  0  0  0  0  0
   34.3399   39.9709   56.4995 S   0  0  0  0  0  0  0  0  0  0  0  0
   34.0727   38.2994   56.0326 C   0  0  0  0  0  0  0  0  0  0  0  0
   33.3107   37.6700   56.9331 C   0  0  0  0  0  0  0  0  0  0  0  0
   32.9272   38.5350   58.0353 C   0  0  0  0  0  0  0  0  0  0  0  0
   32.0973   38.0900   59.1570 C   0  0  0  0  0  0  0  0  0  0  0  0
   30.9737   37.6682   58.9530 O   0  0  0  0  0  0  0  0  0  0  0  0
   32.5776   38.1474   60.4150 N   0  0  0  0  0  0  0  0  0  0  0  0
   31.7475   37.7022   61.5370 C   0  0  0  0  0  0  0  0  0  0  0  0
   31.9854   36.2118   61.7874 C   0  0  0  0  0  0  0  0  0  0  0  0
   31.1316   35.7537   62.9416 C   0  0  0  0  0  0  0  0  0  0  0  0
   31.6263   35.8074   64.2313 C   0  0  0  0  0  0  0  0  0  0  0  0
   30.8412   35.3917   65.2905 C   0  0  0  0  0  0  0  0  0  0  0  0
   29.5653   34.9127   65.0590 C   0  0  0  0  0  0  0  0  0  0  0  0
   29.0726   34.8541   63.7688 C   0  0  0  0  0  0  0  0  0  0  0  0
   29.8558   35.2746   62.7101 C   0  0  0  0  0  0  0  0  0  0  0  0
   32.9010   36.2107   56.8135 C   0  0  0  0  0  0  0  0  0  0  0  0
   33.1176   35.7550   55.3688 C   0  0  0  0  0  0  0  0  0  0  0  0
   34.5369   36.1292   54.9311 C   0  0  0  0  0  0  0  0  0  0  0  0
   34.6279   37.6500   54.7793 C   0  0  0  0  0  0  0  0  0  0  0  0
   33.5722   41.7010   58.6832 H   0  0  0  0  0  0  0  0  0  0  0  0
   32.6493   40.6545   59.6190 H   0  0  0  0  0  0  0  0  0  0  0  0
   33.4729   38.4836   60.5774 H   0  0  0  0  0  0  0  0  0  0  0  0
   32.0112   38.2675   62.4307 H   0  0  0  0  0  0  0  0  0  0  0  0
   30.6966   37.8675   61.2994 H   0  0  0  0  0  0  0  0  0  0  0  0
   31.7218   35.6465   60.8936 H   0  0  0  0  0  0  0  0  0  0  0  0
   33.0364   36.0465   62.0249 H   0  0  0  0  0  0  0  0  0  0  0  0
   32.6246   36.1776   64.4118 H   0  0  0  0  0  0  0  0  0  0  0  0
   31.2263   35.4373   66.2985 H   0  0  0  0  0  0  0  0  0  0  0  0
   28.9536   34.5838   65.8861 H   0  0  0  0  0  0  0  0  0  0  0  0
   28.0759   34.4795   63.5878 H   0  0  0  0  0  0  0  0  0  0  0  0
   29.4709   35.2285   61.7021 H   0  0  0  0  0  0  0  0  0  0  0  0
   33.5104   35.6040   57.4833 H   0  0  0  0  0  0  0  0  0  0  0  0
   31.8491   36.1036   57.0788 H   0  0  0  0  0  0  0  0  0  0  0  0
   32.9896   34.6744   55.3046 H   0  0  0  0  0  0  0  0  0  0  0  0
   32.3942   36.2476   54.7190 H   0  0  0  0  0  0  0  0  0  0  0  0
   35.2507   35.7945   55.6838 H   0  0  0  0  0  0  0  0  0  0  0  0
   34.7616   35.6533   53.9765 H   0  0  0  0  0  0  0  0  0  0  0  0
   35.6695   37.9424   54.6469 H   0  0  0  0  0  0  0  0  0  0  0  0
   34.0446   37.9664   53.9146 H   0  0  0  0  0  0  0  0  0  0  0  0
  1  2  1  0  0  0  0
  1 22  1  0  0  0  0
  1 23  1  0  0  0  0
  2  6  2  0  0  0  0
  2  3  1  0  0  0  0
  3  4  1  0  0  0  0
  4 21  1  0  0  0  0
  4  5  2  0  0  0  0
  5  6  1  0  0  0  0
  5 18  1  0  0  0  0
  6  7  1  0  0  0  0
  7  8  2  0  0  0  0
  7  9  1  0  0  0  0
  9 10  1  0  0  0  0
  9 24  1  0  0  0  0
 10 11  1  0  0  0  0
 10 25  1  0  0  0  0
 10 26  1  0  0  0  0
 11 12  1  0  0  0  0
 11 27  1  0  0  0  0
 11 28  1  0  0  0  0
 12 17  2  0  0  0  0
 12 13  1  0  0  0  0
 13 14  2  0  0  0  0
 13 29  1  0  0  0  0
 14 15  1  0  0  0  0
 14 30  1  0  0  0  0
 15 16  2  0  0  0  0
 15 31  1  0  0  0  0
 16 17  1  0  0  0  0
 16 32  1  0  0  0  0
 17 33  1  0  0  0  0
 18 19  1  0  0  0  0
 18 34  1  0  0  0  0
 18 35  1  0  0  0  0
 19 20  1  0  0  0  0
 19 36  1  0  0  0  0
 19 37  1  0  0  0  0
 20 21  1  0  0  0  0
 20 38  1  0  0  0  0
 20 39  1  0  0  0  0
 21 40  1  0  0  0  0
 21 41  1  0  0  0  0
M  END
$$$$
