ZINC000000049757      none
 OpenBabel11202420153D

 31 33  0  0  1  0  0  0  0  0999 V2000
   34.3347   37.1926   65.4751 N   0  0  0  0  0  0  0  0  0  0  0  0
   33.2556   37.4581   65.7108 C   0  0  0  0  0  0  0  0  0  0  0  0
   31.8954   37.7927   66.0080 C   0  0  0  0  0  0  0  0  0  0  0  0
   31.5981   38.0562   67.2891 C   0  0  0  0  0  0  0  0  0  0  0  0
   32.6026   37.9788   68.2246 N   0  0  0  0  0  0  0  0  0  0  0  0
   29.9868   38.4951   67.8280 S   0  0  0  0  0  0  0  0  0  0  0  0
   29.2636   39.0245   66.3194 C   0  0  0  0  0  0  0  0  0  0  0  0
   28.1482   39.8263   66.3744 N   0  0  0  0  0  0  0  0  0  0  0  0
   29.7473   38.6835   65.1128 C   0  0  0  0  0  0  0  0  0  0  0  0
   29.0637   39.1966   63.9638 C   0  0  0  0  0  0  0  0  0  0  0  0
   28.5214   39.6035   63.0523 N   0  0  0  0  0  0  0  0  0  0  0  0
   30.9348   37.8174   64.8693 C   0  0  2  0  0  0  0  0  0  0  0  0
   30.4604   36.4111   64.6081 C   0  0  0  0  0  0  0  0  0  0  0  0
   30.6835   35.8256   63.3757 C   0  0  0  0  0  0  0  0  0  0  0  0
   30.2503   34.5357   63.1312 C   0  0  0  0  0  0  0  0  0  0  0  0
   29.5907   33.8265   64.1220 C   0  0  0  0  0  0  0  0  0  0  0  0
   29.3656   34.4164   65.3631 C   0  0  0  0  0  0  0  0  0  0  0  0
   29.8027   35.7095   65.6011 C   0  0  0  0  0  0  0  0  0  0  0  0
   28.7052   33.5238   66.1571 O   0  0  0  0  0  0  0  0  0  0  0  0
   28.8898   32.2412   65.5295 C   0  0  0  0  0  0  0  0  0  0  0  0
   29.0713   32.5642   64.1381 O   0  0  0  0  0  0  0  0  0  0  0  0
   32.4119   38.1649   69.1573 H   0  0  0  0  0  0  0  0  0  0  0  0
   33.5018   37.7383   67.9519 H   0  0  0  0  0  0  0  0  0  0  0  0
   27.7297   40.1319   65.5546 H   0  0  0  0  0  0  0  0  0  0  0  0
   27.7798   40.0863   67.2332 H   0  0  0  0  0  0  0  0  0  0  0  0
   31.4547   38.1795   63.9824 H   0  0  0  0  0  0  0  0  0  0  0  0
   31.1979   36.3769   62.6025 H   0  0  0  0  0  0  0  0  0  0  0  0
   30.4264   34.0807   62.1679 H   0  0  0  0  0  0  0  0  0  0  0  0
   29.6293   36.1695   66.5627 H   0  0  0  0  0  0  0  0  0  0  0  0
   28.0063   31.6174   65.6657 H   0  0  0  0  0  0  0  0  0  0  0  0
   29.7753   31.7445   65.9261 H   0  0  0  0  0  0  0  0  0  0  0  0
  1  2  3  0  0  0  0
  2  3  1  0  0  0  0
  3 12  1  0  0  0  0
  3  4  2  0  0  0  0
  4  5  1  0  0  0  0
  4  6  1  0  0  0  0
  5 22  1  0  0  0  0
  5 23  1  0  0  0  0
  6  7  1  0  0  0  0
  7  8  1  0  0  0  0
  7  9  2  0  0  0  0
  8 24  1  0  0  0  0
  8 25  1  0  0  0  0
  9 10  1  0  0  0  0
  9 12  1  0  0  0  0
 10 11  3  0  0  0  0
 12 13  1  0  0  0  0
 12 26  1  6  0  0  0
 13 18  2  0  0  0  0
 13 14  1  0  0  0  0
 14 15  2  0  0  0  0
 14 27  1  0  0  0  0
 15 16  1  0  0  0  0
 15 28  1  0  0  0  0
 16 21  1  0  0  0  0
 16 17  2  0  0  0  0
 17 18  1  0  0  0  0
 17 19  1  0  0  0  0
 18 29  1  0  0  0  0
 19 20  1  0  0  0  0
 20 21  1  0  0  0  0
 20 30  1  0  0  0  0
 20 31  1  0  0  0  0
M  END
$$$$
