ZINC000000012426      none
 OpenBabel11202420153D

 44 46  0  0  1  0  0  0  0  0999 V2000
   30.7090   33.8840   68.5428 C   0  0  0  0  0  0  0  0  0  0  0  0
   30.1947   33.5132   67.2221 N   0  0  0  0  0  0  0  0  0  0  0  0
   30.4317   34.3457   66.1222 N   0  0  0  0  0  0  0  0  0  0  0  0
   29.9750   34.0332   64.9354 C   0  0  0  0  0  0  0  0  0  0  0  0
   30.2125   34.8585   63.8831 O   0  0  0  0  0  0  0  0  0  0  0  0
   31.4185   35.6242   63.9186 C   0  0  2  0  0  0  0  0  0  0  0  0
   32.1808   35.0750   64.4711 H   0  0  0  0  0  0  0  0  0  0  0  0
   31.1560   36.9423   64.6026 C   0  0  0  0  0  0  0  0  0  0  0  0
   31.0723   36.9678   65.9809 C   0  0  0  0  0  0  0  0  0  0  0  0
   30.8278   38.1696   66.6474 C   0  0  0  0  0  0  0  0  0  0  0  0
   30.7416   38.1952   68.0766 C   0  0  0  0  0  0  0  0  0  0  0  0
   30.6733   38.2155   69.2104 N   0  0  0  0  0  0  0  0  0  0  0  0
   30.6668   39.3479   65.9128 C   0  0  0  0  0  0  0  0  0  0  0  0
   30.7521   39.3146   64.5405 C   0  0  0  0  0  0  0  0  0  0  0  0
   30.9982   38.1134   63.8772 C   0  0  0  0  0  0  0  0  0  0  0  0
   31.0834   38.1310   62.5225 O   0  0  0  0  0  0  0  0  0  0  0  0
   30.9637   36.8884   61.8294 C   0  0  0  0  0  0  0  0  0  0  0  0
   31.3549   37.0767   60.3622 C   0  0  0  0  0  0  0  0  0  0  0  0
   29.5212   36.3862   61.9183 C   0  0  0  0  0  0  0  0  0  0  0  0
   31.9058   35.8732   62.4891 C   0  0  2  0  0  0  0  0  0  0  0  0
   31.8845   34.5620   61.7011 C   0  0  0  0  0  0  0  0  0  0  0  0
   33.2352   36.3965   62.5177 O   0  0  0  0  0  0  0  0  0  0  0  0
   29.2452   32.8460   64.7409 C   0  0  0  0  0  0  0  0  0  0  0  0
   29.0075   32.0196   65.7947 C   0  0  0  0  0  0  0  0  0  0  0  0
   29.4988   32.3686   67.0690 C   0  0  0  0  0  0  0  0  0  0  0  0
   29.2953   31.6399   68.0274 O   0  0  0  0  0  0  0  0  0  0  0  0
   31.7098   33.4717   68.6718 H   0  0  0  0  0  0  0  0  0  0  0  0
   30.7502   34.9702   68.6248 H   0  0  0  0  0  0  0  0  0  0  0  0
   30.0499   33.4861   69.3143 H   0  0  0  0  0  0  0  0  0  0  0  0
   31.1968   36.0552   66.5448 H   0  0  0  0  0  0  0  0  0  0  0  0
   30.4759   40.2813   66.4212 H   0  0  0  0  0  0  0  0  0  0  0  0
   30.6271   40.2250   63.9731 H   0  0  0  0  0  0  0  0  0  0  0  0
   31.2802   36.1224   59.8409 H   0  0  0  0  0  0  0  0  0  0  0  0
   30.6835   37.7984   59.8969 H   0  0  0  0  0  0  0  0  0  0  0  0
   32.3796   37.4435   60.3037 H   0  0  0  0  0  0  0  0  0  0  0  0
   29.2434   36.2626   62.9651 H   0  0  0  0  0  0  0  0  0  0  0  0
   28.8549   37.1098   61.4487 H   0  0  0  0  0  0  0  0  0  0  0  0
   29.4375   35.4285   61.4047 H   0  0  0  0  0  0  0  0  0  0  0  0
   30.8673   34.1713   61.6731 H   0  0  0  0  0  0  0  0  0  0  0  0
   32.5390   33.8368   62.1848 H   0  0  0  0  0  0  0  0  0  0  0  0
   32.2322   34.7435   60.6840 H   0  0  0  0  0  0  0  0  0  0  0  0
   33.3199   37.2289   63.0024 H   0  0  0  0  0  0  0  0  0  0  0  0
   28.8748   32.5920   63.7586 H   0  0  0  0  0  0  0  0  0  0  0  0
   28.4487   31.1057   65.6566 H   0  0  0  0  0  0  0  0  0  0  0  0
  1  2  1  0  0  0  0
  1 27  1  0  0  0  0
  1 28  1  0  0  0  0
  1 29  1  0  0  0  0
  2 25  1  0  0  0  0
  2  3  1  0  0  0  0
  3  4  2  0  0  0  0
  4  5  1  0  0  0  0
  4 23  1  0  0  0  0
  5  6  1  0  0  0  0
  6  7  1  1  0  0  0
  6 20  1  0  0  0  0
  6  8  1  0  0  0  0
  8 15  2  0  0  0  0
  8  9  1  0  0  0  0
  9 10  2  0  0  0  0
  9 30  1  0  0  0  0
 10 11  1  0  0  0  0
 10 13  1  0  0  0  0
 11 12  3  0  0  0  0
 13 14  2  0  0  0  0
 13 31  1  0  0  0  0
 14 15  1  0  0  0  0
 14 32  1  0  0  0  0
 15 16  1  0  0  0  0
 16 17  1  0  0  0  0
 17 18  1  0  0  0  0
 17 19  1  0  0  0  0
 17 20  1  0  0  0  0
 18 33  1  0  0  0  0
 18 34  1  0  0  0  0
 18 35  1  0  0  0  0
 19 36  1  0  0  0  0
 19 37  1  0  0  0  0
 19 38  1  0  0  0  0
 20 21  1  0  0  0  0
 20 22  1  1  0  0  0
 21 39  1  0  0  0  0
 21 40  1  0  0  0  0
 21 41  1  0  0  0  0
 22 42  1  0  0  0  0
 23 24  2  0  0  0  0
 23 43  1  0  0  0  0
 24 25  1  0  0  0  0
 24 44  1  0  0  0  0
 25 26  2  0  0  0  0
M  END
$$$$
