ZINC000000046002      none
 OpenBabel11202420153D

 29 30  0  0  0  0  0  0  0  0999 V2000
   33.6294   32.8026   55.7578 C   0  0  0  0  0  0  0  0  0  0  0  0
   33.3528   33.7665   54.6328 C   0  0  0  0  0  0  0  0  0  0  0  0
   33.6268   33.4053   53.3287 C   0  0  0  0  0  0  0  0  0  0  0  0
   34.2910   31.8386   52.9850 Cl  0  0  0  0  0  0  0  0  0  0  0  0
   33.3780   34.2923   52.2950 C   0  0  0  0  0  0  0  0  0  0  0  0
   32.8433   35.5408   52.5599 C   0  0  0  0  0  0  0  0  0  0  0  0
   32.5650   35.9143   53.8581 C   0  0  0  0  0  0  0  0  0  0  0  0
   32.8186   35.0272   54.9069 C   0  0  0  0  0  0  0  0  0  0  0  0
   32.5450   35.3922   56.1972 N   0  0  0  0  0  0  0  0  0  0  0  0
   33.1338   36.4314   56.7194 C   0  0  0  0  0  0  0  0  0  0  0  0
   32.7558   36.8924   58.0641 C   0  0  0  0  0  0  0  0  0  0  0  0
   32.8615   38.2473   58.3971 C   0  0  0  0  0  0  0  0  0  0  0  0
   32.5027   38.6744   59.6559 C   0  0  0  0  0  0  0  0  0  0  0  0
   32.0449   37.7608   60.5981 C   0  0  0  0  0  0  0  0  0  0  0  0
   31.6969   38.1862   61.8395 O   0  0  0  0  0  0  0  0  0  0  0  0
   31.9427   36.4132   60.2737 C   0  0  0  0  0  0  0  0  0  0  0  0
   32.2949   35.9767   59.0161 C   0  0  0  0  0  0  0  0  0  0  0  0
   34.6456   32.9519   56.1227 H   0  0  0  0  0  0  0  0  0  0  0  0
   32.9226   32.9782   56.5689 H   0  0  0  0  0  0  0  0  0  0  0  0
   33.5199   31.7803   55.3955 H   0  0  0  0  0  0  0  0  0  0  0  0
   33.5981   34.0068   51.2770 H   0  0  0  0  0  0  0  0  0  0  0  0
   32.6476   36.2261   51.7484 H   0  0  0  0  0  0  0  0  0  0  0  0
   32.1522   36.8910   54.0634 H   0  0  0  0  0  0  0  0  0  0  0  0
   33.8991   36.9538   56.1647 H   0  0  0  0  0  0  0  0  0  0  0  0
   33.2205   38.9574   57.6668 H   0  0  0  0  0  0  0  0  0  0  0  0
   32.5806   39.7205   59.9128 H   0  0  0  0  0  0  0  0  0  0  0  0
   31.3907   37.4805   62.4256 H   0  0  0  0  0  0  0  0  0  0  0  0
   31.5869   35.7071   61.0095 H   0  0  0  0  0  0  0  0  0  0  0  0
   32.2152   34.9293   58.7651 H   0  0  0  0  0  0  0  0  0  0  0  0
  1  2  1  0  0  0  0
  1 18  1  0  0  0  0
  1 19  1  0  0  0  0
  1 20  1  0  0  0  0
  2  8  2  0  0  0  0
  2  3  1  0  0  0  0
  3  4  1  0  0  0  0
  3  5  2  0  0  0  0
  5  6  1  0  0  0  0
  5 21  1  0  0  0  0
  6  7  2  0  0  0  0
  6 22  1  0  0  0  0
  7  8  1  0  0  0  0
  7 23  1  0  0  0  0
  8  9  1  0  0  0  0
  9 10  2  0  0  0  0
 10 11  1  0  0  0  0
 10 24  1  0  0  0  0
 11 17  2  0  0  0  0
 11 12  1  0  0  0  0
 12 13  2  0  0  0  0
 12 25  1  0  0  0  0
 13 14  1  0  0  0  0
 13 26  1  0  0  0  0
 14 15  1  0  0  0  0
 14 16  2  0  0  0  0
 15 27  1  0  0  0  0
 16 17  1  0  0  0  0
 16 28  1  0  0  0  0
 17 29  1  0  0  0  0
M  END
$$$$
