ZINC000000048626      none
 OpenBabel11202420153D

 32 33  0  0  1  0  0  0  0  0999 V2000
   32.7312   33.9169   56.7615 C   0  0  0  0  0  0  0  0  0  0  0  0
   33.3001   34.4800   55.5777 O   0  0  0  0  0  0  0  0  0  0  0  0
   33.5667   35.8134   55.5948 C   0  0  0  0  0  0  0  0  0  0  0  0
   34.1254   36.4224   54.4788 C   0  0  0  0  0  0  0  0  0  0  0  0
   34.4007   37.7766   54.4873 C   0  0  0  0  0  0  0  0  0  0  0  0
   34.1202   38.5366   55.6107 C   0  0  0  0  0  0  0  0  0  0  0  0
   34.3918   39.8680   55.6177 O   0  0  0  0  0  0  0  0  0  0  0  0
   33.5560   37.9289   56.7402 C   0  0  0  0  0  0  0  0  0  0  0  0
   33.2547   38.7305   57.9395 C   0  0  0  0  0  0  0  0  0  0  0  0
   32.7321   38.1644   58.9844 N   0  0  0  0  0  0  0  0  0  0  0  0
   32.4457   38.9266   60.1244 N   0  0  0  0  0  0  0  0  0  0  0  0
   31.8963   38.3315   61.2227 C   0  0  0  0  0  0  0  0  0  0  0  0
   30.7405   38.6329   61.7736 N   0  0  0  0  0  0  0  0  0  0  0  0
   30.2888   38.0107   62.8276 C   0  0  0  0  0  0  0  0  0  0  0  0
   29.2235   38.2760   63.3497 O   0  0  0  0  0  0  0  0  0  0  0  0
   31.2149   36.9275   63.3405 C   0  0  1  0  0  0  0  0  0  0  0  0
   30.5353   35.5581   63.2793 C   0  0  0  0  0  0  0  0  0  0  0  0
   32.6114   37.0112   62.1673 S   0  0  0  0  0  0  0  0  0  0  0  0
   33.2860   36.5585   56.7261 C   0  0  0  0  0  0  0  0  0  0  0  0
   33.4118   34.0688   57.5994 H   0  0  0  0  0  0  0  0  0  0  0  0
   31.7792   34.4032   56.9739 H   0  0  0  0  0  0  0  0  0  0  0  0
   32.5690   32.8491   56.6142 H   0  0  0  0  0  0  0  0  0  0  0  0
   34.3462   35.8348   53.6000 H   0  0  0  0  0  0  0  0  0  0  0  0
   34.8357   38.2434   53.6160 H   0  0  0  0  0  0  0  0  0  0  0  0
   34.7795   40.1946   54.7943 H   0  0  0  0  0  0  0  0  0  0  0  0
   33.4688   39.7891   57.9492 H   0  0  0  0  0  0  0  0  0  0  0  0
   32.6379   39.8773   60.1332 H   0  0  0  0  0  0  0  0  0  0  0  0
   31.5474   37.1506   64.3544 H   0  0  0  0  0  0  0  0  0  0  0  0
   31.2500   34.7849   63.5610 H   0  0  0  0  0  0  0  0  0  0  0  0
   29.6906   35.5405   63.9680 H   0  0  0  0  0  0  0  0  0  0  0  0
   30.1811   35.3732   62.2651 H   0  0  0  0  0  0  0  0  0  0  0  0
   32.8557   36.0826   57.5948 H   0  0  0  0  0  0  0  0  0  0  0  0
  1  2  1  0  0  0  0
  1 20  1  0  0  0  0
  1 21  1  0  0  0  0
  1 22  1  0  0  0  0
  2  3  1  0  0  0  0
  3 19  2  0  0  0  0
  3  4  1  0  0  0  0
  4  5  2  0  0  0  0
  4 23  1  0  0  0  0
  5  6  1  0  0  0  0
  5 24  1  0  0  0  0
  6  7  1  0  0  0  0
  6  8  2  0  0  0  0
  7 25  1  0  0  0  0
  8  9  1  0  0  0  0
  8 19  1  0  0  0  0
  9 10  2  0  0  0  0
  9 26  1  0  0  0  0
 10 11  1  0  0  0  0
 11 12  1  0  0  0  0
 11 27  1  0  0  0  0
 12 18  1  0  0  0  0
 12 13  2  0  0  0  0
 13 14  1  0  0  0  0
 14 15  2  0  0  0  0
 14 16  1  0  0  0  0
 16 17  1  0  0  0  0
 16 18  1  0  0  0  0
 16 28  1  1  0  0  0
 17 29  1  0  0  0  0
 17 30  1  0  0  0  0
 17 31  1  0  0  0  0
 19 32  1  0  0  0  0
M  END
$$$$
