ZINC000000035361      none
 OpenBabel11202420153D

 27 28  0  0  0  0  0  0  0  0999 V2000
   33.0483   36.6625   63.8353 C   0  0  0  0  0  0  0  0  0  0  0  0
   31.5855   36.3551   63.6436 C   0  0  0  0  0  0  0  0  0  0  0  0
   30.8581   35.5847   64.4038 N   0  0  0  0  0  0  0  0  0  0  0  0
   29.5532   35.5504   63.8997 N   0  0  0  0  0  0  0  0  0  0  0  0
   28.4345   34.7972   64.4719 C   0  0  0  0  0  0  0  0  0  0  0  0
   29.4973   36.3288   62.8077 C   0  0  0  0  0  0  0  0  0  0  0  0
   30.7613   36.8512   62.6075 C   0  0  0  0  0  0  0  0  0  0  0  0
   31.1711   37.7593   61.5221 C   0  0  0  0  0  0  0  0  0  0  0  0
   31.0874   38.9631   61.6723 O   0  0  0  0  0  0  0  0  0  0  0  0
   31.6841   37.2070   60.2505 C   0  0  0  0  0  0  0  0  0  0  0  0
   31.7819   35.8252   60.0748 C   0  0  0  0  0  0  0  0  0  0  0  0
   32.2673   35.3167   58.8880 C   0  0  0  0  0  0  0  0  0  0  0  0
   32.6464   36.1724   57.8687 C   0  0  0  0  0  0  0  0  0  0  0  0
   32.5517   37.5427   58.0359 C   0  0  0  0  0  0  0  0  0  0  0  0
   32.0734   38.0647   59.2197 C   0  0  0  0  0  0  0  0  0  0  0  0
   33.1544   37.5459   64.4652 H   0  0  0  0  0  0  0  0  0  0  0  0
   33.5381   35.8144   64.3136 H   0  0  0  0  0  0  0  0  0  0  0  0
   33.5103   36.8497   62.8661 H   0  0  0  0  0  0  0  0  0  0  0  0
   27.9105   35.4196   65.1973 H   0  0  0  0  0  0  0  0  0  0  0  0
   27.7467   34.5084   63.6771 H   0  0  0  0  0  0  0  0  0  0  0  0
   28.8136   33.9031   64.9669 H   0  0  0  0  0  0  0  0  0  0  0  0
   28.6259   36.5112   62.1963 H   0  0  0  0  0  0  0  0  0  0  0  0
   31.4825   35.1562   60.8680 H   0  0  0  0  0  0  0  0  0  0  0  0
   32.3480   34.2482   58.7526 H   0  0  0  0  0  0  0  0  0  0  0  0
   33.0221   35.7688   56.9400 H   0  0  0  0  0  0  0  0  0  0  0  0
   32.8530   38.2050   57.2379 H   0  0  0  0  0  0  0  0  0  0  0  0
   32.0006   39.1344   59.3492 H   0  0  0  0  0  0  0  0  0  0  0  0
  1  2  1  0  0  0  0
  1 16  1  0  0  0  0
  1 17  1  0  0  0  0
  1 18  1  0  0  0  0
  2  7  1  0  0  0  0
  2  3  2  0  0  0  0
  3  4  1  0  0  0  0
  4  5  1  0  0  0  0
  4  6  1  0  0  0  0
  5 19  1  0  0  0  0
  5 20  1  0  0  0  0
  5 21  1  0  0  0  0
  6  7  2  0  0  0  0
  6 22  1  0  0  0  0
  7  8  1  0  0  0  0
  8  9  2  0  0  0  0
  8 10  1  0  0  0  0
 10 15  2  0  0  0  0
 10 11  1  0  0  0  0
 11 12  2  0  0  0  0
 11 23  1  0  0  0  0
 12 13  1  0  0  0  0
 12 24  1  0  0  0  0
 13 14  2  0  0  0  0
 13 25  1  0  0  0  0
 14 15  1  0  0  0  0
 14 26  1  0  0  0  0
 15 27  1  0  0  0  0
M  END
$$$$
