ZINC000000051734      none
 OpenBabel11202420153D

 33 35  0  0  0  0  0  0  0  0999 V2000
   29.2558   39.5145   67.8298 O   0  0  0  0  0  0  0  0  0  0  0  0
   28.3479   39.9083   67.1207 C   0  0  0  0  0  0  0  0  0  0  0  0
   27.1567   40.3938   67.5252 N   0  0  0  0  0  0  0  0  0  0  0  0
   26.4125   40.7211   66.4575 C   0  0  0  0  0  0  0  0  0  0  0  0
   24.8291   41.3665   66.5405 S   0  0  0  0  0  0  0  0  0  0  0  0
   27.0754   40.4744   65.3139 N   0  0  0  0  0  0  0  0  0  0  0  0
   28.3312   39.9535   65.6515 C   0  0  0  0  0  0  0  0  0  0  0  0
   29.3194   39.5674   64.8032 C   0  0  0  0  0  0  0  0  0  0  0  0
   30.6362   39.1965   65.3316 C   0  0  0  0  0  0  0  0  0  0  0  0
   31.3920   40.1252   66.0572 C   0  0  0  0  0  0  0  0  0  0  0  0
   32.6250   39.7673   66.5555 C   0  0  0  0  0  0  0  0  0  0  0  0
   33.1264   38.4930   66.3380 C   0  0  0  0  0  0  0  0  0  0  0  0
   32.3975   37.5668   65.6197 C   0  0  0  0  0  0  0  0  0  0  0  0
   31.1514   37.9061   65.1087 C   0  0  0  0  0  0  0  0  0  0  0  0
   30.2186   36.7257   64.1914 S   0  0  0  0  0  0  0  0  0  0  0  0
   30.7461   37.0052   62.5337 C   0  0  0  0  0  0  0  0  0  0  0  0
   32.0324   37.4663   62.2809 C   0  0  0  0  0  0  0  0  0  0  0  0
   32.4444   37.6804   60.9804 C   0  0  0  0  0  0  0  0  0  0  0  0
   31.5744   37.4457   59.9299 C   0  0  0  0  0  0  0  0  0  0  0  0
   32.0937   37.7228   58.2968 Cl  0  0  0  0  0  0  0  0  0  0  0  0
   30.2911   36.9910   60.1789 C   0  0  0  0  0  0  0  0  0  0  0  0
   29.8749   36.7706   61.4769 C   0  0  0  0  0  0  0  0  0  0  0  0
   26.8776   40.4879   68.4494 H   0  0  0  0  0  0  0  0  0  0  0  0
   26.7432   40.6289   64.4157 H   0  0  0  0  0  0  0  0  0  0  0  0
   29.1353   39.5337   63.7396 H   0  0  0  0  0  0  0  0  0  0  0  0
   31.0068   41.1194   66.2295 H   0  0  0  0  0  0  0  0  0  0  0  0
   33.2049   40.4835   67.1188 H   0  0  0  0  0  0  0  0  0  0  0  0
   34.0947   38.2233   66.7330 H   0  0  0  0  0  0  0  0  0  0  0  0
   32.7966   36.5768   65.4551 H   0  0  0  0  0  0  0  0  0  0  0  0
   32.7103   37.6538   63.1005 H   0  0  0  0  0  0  0  0  0  0  0  0
   33.4451   38.0354   60.7831 H   0  0  0  0  0  0  0  0  0  0  0  0
   29.6144   36.8089   59.3571 H   0  0  0  0  0  0  0  0  0  0  0  0
   28.8732   36.4165   61.6706 H   0  0  0  0  0  0  0  0  0  0  0  0
  1  2  2  0  0  0  0
  2  7  1  0  0  0  0
  2  3  1  0  0  0  0
  3  4  1  0  0  0  0
  3 23  1  0  0  0  0
  4  5  2  0  0  0  0
  4  6  1  0  0  0  0
  6  7  1  0  0  0  0
  6 24  1  0  0  0  0
  7  8  2  0  0  0  0
  8  9  1  0  0  0  0
  8 25  1  0  0  0  0
  9 14  2  0  0  0  0
  9 10  1  0  0  0  0
 10 11  2  0  0  0  0
 10 26  1  0  0  0  0
 11 12  1  0  0  0  0
 11 27  1  0  0  0  0
 12 13  2  0  0  0  0
 12 28  1  0  0  0  0
 13 14  1  0  0  0  0
 13 29  1  0  0  0  0
 14 15  1  0  0  0  0
 15 16  1  0  0  0  0
 16 22  2  0  0  0  0
 16 17  1  0  0  0  0
 17 18  2  0  0  0  0
 17 30  1  0  0  0  0
 18 19  1  0  0  0  0
 18 31  1  0  0  0  0
 19 20  1  0  0  0  0
 19 21  2  0  0  0  0
 21 22  1  0  0  0  0
 21 32  1  0  0  0  0
 22 33  1  0  0  0  0
M  END
$$$$
