ZINC000000045148      none
 OpenBabel11202420153D

 42 45  0  0  0  0  0  0  0  0999 V2000
   31.3757   37.7892   62.6988 O   0  0  0  0  0  0  0  0  0  0  0  0
   31.5080   36.7649   62.0500 C   0  0  0  0  0  0  0  0  0  0  0  0
   31.2103   35.4894   62.6088 C   0  0  0  0  0  0  0  0  0  0  0  0
   30.7673   35.3899   63.8920 O   0  0  0  0  0  0  0  0  0  0  0  0
   31.5719   35.8562   64.8825 C   0  0  0  0  0  0  0  0  0  0  0  0
   31.1624   35.7765   66.2060 C   0  0  0  0  0  0  0  0  0  0  0  0
   31.9823   36.2518   67.2111 C   0  0  0  0  0  0  0  0  0  0  0  0
   33.2105   36.8063   66.8989 C   0  0  0  0  0  0  0  0  0  0  0  0
   33.6179   36.8922   65.5810 C   0  0  0  0  0  0  0  0  0  0  0  0
   32.8045   36.4133   64.5724 C   0  0  0  0  0  0  0  0  0  0  0  0
   31.3651   34.3816   61.8565 C   0  0  0  0  0  0  0  0  0  0  0  0
   31.7969   34.4210   60.5891 O   0  0  0  0  0  0  0  0  0  0  0  0
   32.1105   35.5759   59.9680 C   0  0  0  0  0  0  0  0  0  0  0  0
   32.5547   35.5816   58.6531 C   0  0  0  0  0  0  0  0  0  0  0  0
   32.8694   36.7822   58.0397 C   0  0  0  0  0  0  0  0  0  0  0  0
   33.3034   36.7870   56.7534 O   0  0  0  0  0  0  0  0  0  0  0  0
   33.6118   38.0580   56.1776 C   0  0  0  0  0  0  0  0  0  0  0  0
   34.0738   37.8666   54.7559 C   0  0  0  0  0  0  0  0  0  0  0  0
   34.9713   38.7557   54.1952 C   0  0  0  0  0  0  0  0  0  0  0  0
   35.3989   38.5774   52.8928 C   0  0  0  0  0  0  0  0  0  0  0  0
   34.9213   37.5162   52.1478 C   0  0  0  0  0  0  0  0  0  0  0  0
   34.0190   36.6296   52.7067 C   0  0  0  0  0  0  0  0  0  0  0  0
   33.5956   36.8050   54.0109 C   0  0  0  0  0  0  0  0  0  0  0  0
   32.7441   37.9860   58.7307 C   0  0  0  0  0  0  0  0  0  0  0  0
   32.3087   37.9971   60.0250 C   0  0  0  0  0  0  0  0  0  0  0  0
   31.9870   36.7952   60.6574 C   0  0  0  0  0  0  0  0  0  0  0  0
   30.2035   35.3438   66.4500 H   0  0  0  0  0  0  0  0  0  0  0  0
   31.6639   36.1904   68.2412 H   0  0  0  0  0  0  0  0  0  0  0  0
   33.8500   37.1773   67.6861 H   0  0  0  0  0  0  0  0  0  0  0  0
   34.5753   37.3300   65.3398 H   0  0  0  0  0  0  0  0  0  0  0  0
   33.1254   36.4768   63.5431 H   0  0  0  0  0  0  0  0  0  0  0  0
   31.1308   33.4224   62.2938 H   0  0  0  0  0  0  0  0  0  0  0  0
   32.6544   34.6532   58.1104 H   0  0  0  0  0  0  0  0  0  0  0  0
   32.7220   38.6875   56.1888 H   0  0  0  0  0  0  0  0  0  0  0  0
   34.4026   38.5364   56.7554 H   0  0  0  0  0  0  0  0  0  0  0  0
   35.3416   39.5877   54.7759 H   0  0  0  0  0  0  0  0  0  0  0  0
   36.1030   39.2700   52.4559 H   0  0  0  0  0  0  0  0  0  0  0  0
   35.2513   37.3790   51.1287 H   0  0  0  0  0  0  0  0  0  0  0  0
   33.6451   35.8003   52.1245 H   0  0  0  0  0  0  0  0  0  0  0  0
   32.8909   36.1128   54.4475 H   0  0  0  0  0  0  0  0  0  0  0  0
   32.9930   38.9152   58.2400 H   0  0  0  0  0  0  0  0  0  0  0  0
   32.2136   38.9322   60.5570 H   0  0  0  0  0  0  0  0  0  0  0  0
  1  2  2  0  0  0  0
  2 26  1  0  0  0  0
  2  3  1  0  0  0  0
  3  4  1  0  0  0  0
  3 11  2  0  0  0  0
  4  5  1  0  0  0  0
  5 10  2  0  0  0  0
  5  6  1  0  0  0  0
  6  7  2  0  0  0  0
  6 27  1  0  0  0  0
  7  8  1  0  0  0  0
  7 28  1  0  0  0  0
  8  9  2  0  0  0  0
  8 29  1  0  0  0  0
  9 10  1  0  0  0  0
  9 30  1  0  0  0  0
 10 31  1  0  0  0  0
 11 12  1  0  0  0  0
 11 32  1  0  0  0  0
 12 13  1  0  0  0  0
 13 26  2  0  0  0  0
 13 14  1  0  0  0  0
 14 15  2  0  0  0  0
 14 33  1  0  0  0  0
 15 16  1  0  0  0  0
 15 24  1  0  0  0  0
 16 17  1  0  0  0  0
 17 18  1  0  0  0  0
 17 34  1  0  0  0  0
 17 35  1  0  0  0  0
 18 23  2  0  0  0  0
 18 19  1  0  0  0  0
 19 20  2  0  0  0  0
 19 36  1  0  0  0  0
 20 21  1  0  0  0  0
 20 37  1  0  0  0  0
 21 22  2  0  0  0  0
 21 38  1  0  0  0  0
 22 23  1  0  0  0  0
 22 39  1  0  0  0  0
 23 40  1  0  0  0  0
 24 25  2  0  0  0  0
 24 41  1  0  0  0  0
 25 26  1  0  0  0  0
 25 42  1  0  0  0  0
M  END
$$$$
