ZINC000000041532      none
 OpenBabel11202420153D

 38 39  0  0  1  0  0  0  0  0999 V2000
   33.3599   39.8363   67.1309 C   0  0  0  0  0  0  0  0  0  0  0  0
   33.8414   38.6283   66.5371 O   0  0  0  0  0  0  0  0  0  0  0  0
   33.1435   38.1418   65.4772 C   0  0  0  0  0  0  0  0  0  0  0  0
   33.5542   36.9730   64.8529 C   0  0  0  0  0  0  0  0  0  0  0  0
   32.8433   36.4800   63.7759 C   0  0  0  0  0  0  0  0  0  0  0  0
   31.7234   37.1506   63.3200 C   0  0  0  0  0  0  0  0  0  0  0  0
   30.9496   36.6105   62.1449 C   0  0  1  0  0  0  0  0  0  0  0  0
   29.4864   36.3759   62.5252 C   0  0  0  0  0  0  0  0  0  0  0  0
   31.0773   37.7386   60.7173 S   0  0  0  0  0  0  0  0  0  0  0  0
   31.8632   36.5462   59.6685 C   0  0  0  0  0  0  0  0  0  0  0  0
   32.2650   36.7513   58.3557 N   0  0  0  0  0  0  0  0  0  0  0  0
   32.8545   35.7535   57.6675 C   0  0  0  0  0  0  0  0  0  0  0  0
   33.2906   35.9761   56.2424 C   0  0  0  0  0  0  0  0  0  0  0  0
   33.0339   34.6764   58.1954 O   0  0  0  0  0  0  0  0  0  0  0  0
   32.0007   35.4572   60.3423 N   0  0  0  0  0  0  0  0  0  0  0  0
   31.5622   35.3701   61.6452 N   0  0  0  0  0  0  0  0  0  0  0  0
   31.6832   34.2555   62.3907 C   0  0  0  0  0  0  0  0  0  0  0  0
   32.3234   33.0233   61.8053 C   0  0  0  0  0  0  0  0  0  0  0  0
   31.2765   34.2432   63.5343 O   0  0  0  0  0  0  0  0  0  0  0  0
   31.3153   38.3188   63.9370 C   0  0  0  0  0  0  0  0  0  0  0  0
   32.0194   38.8128   65.0179 C   0  0  0  0  0  0  0  0  0  0  0  0
   32.3438   39.6827   67.4944 H   0  0  0  0  0  0  0  0  0  0  0  0
   34.0057   40.1140   67.9640 H   0  0  0  0  0  0  0  0  0  0  0  0
   33.3632   40.6331   66.3873 H   0  0  0  0  0  0  0  0  0  0  0  0
   34.4287   36.4487   65.2089 H   0  0  0  0  0  0  0  0  0  0  0  0
   33.1623   35.5698   63.2899 H   0  0  0  0  0  0  0  0  0  0  0  0
   29.4318   35.6255   63.3139 H   0  0  0  0  0  0  0  0  0  0  0  0
   29.0492   37.3090   62.8805 H   0  0  0  0  0  0  0  0  0  0  0  0
   28.9357   36.0259   61.6521 H   0  0  0  0  0  0  0  0  0  0  0  0
   32.1214   37.6127   57.9334 H   0  0  0  0  0  0  0  0  0  0  0  0
   34.0192   36.7862   56.2077 H   0  0  0  0  0  0  0  0  0  0  0  0
   32.4251   36.2396   55.6345 H   0  0  0  0  0  0  0  0  0  0  0  0
   33.7430   35.0636   55.8542 H   0  0  0  0  0  0  0  0  0  0  0  0
   33.3967   33.0468   61.9944 H   0  0  0  0  0  0  0  0  0  0  0  0
   31.8924   32.1353   62.2677 H   0  0  0  0  0  0  0  0  0  0  0  0
   32.1444   32.9965   60.7304 H   0  0  0  0  0  0  0  0  0  0  0  0
   30.4429   38.8433   63.5759 H   0  0  0  0  0  0  0  0  0  0  0  0
   31.6978   39.7230   65.5021 H   0  0  0  0  0  0  0  0  0  0  0  0
  1  2  1  0  0  0  0
  1 22  1  0  0  0  0
  1 23  1  0  0  0  0
  1 24  1  0  0  0  0
  2  3  1  0  0  0  0
  3 21  2  0  0  0  0
  3  4  1  0  0  0  0
  4  5  2  0  0  0  0
  4 25  1  0  0  0  0
  5  6  1  0  0  0  0
  5 26  1  0  0  0  0
  6  7  1  0  0  0  0
  6 20  2  0  0  0  0
  7 16  1  0  0  0  0
  7  8  1  1  0  0  0
  7  9  1  0  0  0  0
  8 27  1  0  0  0  0
  8 28  1  0  0  0  0
  8 29  1  0  0  0  0
  9 10  1  0  0  0  0
 10 11  1  0  0  0  0
 10 15  2  0  0  0  0
 11 12  1  0  0  0  0
 11 30  1  0  0  0  0
 12 13  1  0  0  0  0
 12 14  2  0  0  0  0
 13 31  1  0  0  0  0
 13 32  1  0  0  0  0
 13 33  1  0  0  0  0
 15 16  1  0  0  0  0
 16 17  1  0  0  0  0
 17 18  1  0  0  0  0
 17 19  2  0  0  0  0
 18 34  1  0  0  0  0
 18 35  1  0  0  0  0
 18 36  1  0  0  0  0
 20 21  1  0  0  0  0
 20 37  1  0  0  0  0
 21 38  1  0  0  0  0
M  END
$$$$
