ZINC000000051319      none
 OpenBabel11202420153D

 30 31  0  0  0  0  0  0  0  0999 V2000
   35.3365   31.1596   53.0846 C   0  0  0  0  0  0  0  0  0  0  0  0
   34.4882   32.1637   53.1658 C   0  0  0  0  0  0  0  0  0  0  0  0
   34.3053   32.8036   54.3485 O   0  0  0  0  0  0  0  0  0  0  0  0
   33.4264   33.8186   54.3628 C   0  0  0  0  0  0  0  0  0  0  0  0
   32.8403   34.1246   53.3515 O   0  0  0  0  0  0  0  0  0  0  0  0
   33.1711   34.5760   55.6403 C   0  0  0  0  0  0  0  0  0  0  0  0
   33.5918   36.3202   55.4019 S   0  0  0  0  0  0  0  0  0  0  0  0
   33.2085   36.9491   57.0027 C   0  0  0  0  0  0  0  0  0  0  0  0
   32.7504   36.1329   57.9377 N   0  0  0  0  0  0  0  0  0  0  0  0
   32.4509   36.5718   59.1569 C   0  0  0  0  0  0  0  0  0  0  0  0
   31.9434   35.6242   60.1658 C   0  0  0  0  0  0  0  0  0  0  0  0
   31.7398   34.3045   59.9635 C   0  0  0  0  0  0  0  0  0  0  0  0
   31.2632   33.6209   61.0601 C   0  0  0  0  0  0  0  0  0  0  0  0
   31.0650   34.3680   62.1522 C   0  0  0  0  0  0  0  0  0  0  0  0
   31.5019   36.0383   61.8173 S   0  0  0  0  0  0  0  0  0  0  0  0
   32.6109   37.9190   59.4960 C   0  0  0  0  0  0  0  0  0  0  0  0
   33.0820   38.7994   58.5597 C   0  0  0  0  0  0  0  0  0  0  0  0
   33.3917   38.3169   57.2797 C   0  0  0  0  0  0  0  0  0  0  0  0
   33.8872   39.2028   56.2697 C   0  0  0  0  0  0  0  0  0  0  0  0
   34.2805   39.9055   55.4684 N   0  0  0  0  0  0  0  0  0  0  0  0
   35.8867   30.8454   53.9593 H   0  0  0  0  0  0  0  0  0  0  0  0
   35.4821   30.6502   52.1434 H   0  0  0  0  0  0  0  0  0  0  0  0
   33.9380   32.4778   52.2911 H   0  0  0  0  0  0  0  0  0  0  0  0
   33.7858   34.1599   56.4386 H   0  0  0  0  0  0  0  0  0  0  0  0
   32.1184   34.4897   55.9097 H   0  0  0  0  0  0  0  0  0  0  0  0
   31.9382   33.8226   59.0176 H   0  0  0  0  0  0  0  0  0  0  0  0
   31.0595   32.5605   61.0384 H   0  0  0  0  0  0  0  0  0  0  0  0
   30.6930   34.0006   63.0972 H   0  0  0  0  0  0  0  0  0  0  0  0
   32.3647   38.2625   60.4899 H   0  0  0  0  0  0  0  0  0  0  0  0
   33.2124   39.8439   58.8015 H   0  0  0  0  0  0  0  0  0  0  0  0
  1  2  2  0  0  0  0
  1 21  1  0  0  0  0
  1 22  1  0  0  0  0
  2  3  1  0  0  0  0
  2 23  1  0  0  0  0
  3  4  1  0  0  0  0
  4  5  2  0  0  0  0
  4  6  1  0  0  0  0
  6  7  1  0  0  0  0
  6 24  1  0  0  0  0
  6 25  1  0  0  0  0
  7  8  1  0  0  0  0
  8 18  2  0  0  0  0
  8  9  1  0  0  0  0
  9 10  2  0  0  0  0
 10 11  1  0  0  0  0
 10 16  1  0  0  0  0
 11 15  1  0  0  0  0
 11 12  2  0  0  0  0
 12 13  1  0  0  0  0
 12 26  1  0  0  0  0
 13 14  2  0  0  0  0
 13 27  1  0  0  0  0
 14 15  1  0  0  0  0
 14 28  1  0  0  0  0
 16 17  2  0  0  0  0
 16 29  1  0  0  0  0
 17 18  1  0  0  0  0
 17 30  1  0  0  0  0
 18 19  1  0  0  0  0
 19 20  3  0  0  0  0
M  END
$$$$
