ZINC000000039795      none
 OpenBabel11202420153D

 21 22  0  0  0  0  0  0  0  0999 V2000
   31.5638   35.2149   60.8739 C   0  0  0  0  0  0  0  0  0  0  0  0
   31.9530   36.4241   60.0629 C   0  0  0  0  0  0  0  0  0  0  0  0
   32.5316   36.2653   58.8940 N   0  0  0  0  0  0  0  0  0  0  0  0
   32.8722   37.3373   58.1737 C   0  0  0  0  0  0  0  0  0  0  0  0
   33.4897   37.2038   56.9144 C   0  0  0  0  0  0  0  0  0  0  0  0
   33.8178   38.3410   56.2326 C   0  0  0  0  0  0  0  0  0  0  0  0
   34.6490   38.2229   54.5382 Br  0  0  0  0  0  0  0  0  0  0  0  0
   33.5391   39.5898   56.7886 C   0  0  0  0  0  0  0  0  0  0  0  0
   32.9644   39.7094   57.9604 N   0  0  0  0  0  0  0  0  0  0  0  0
   32.6179   38.6369   58.6790 C   0  0  0  0  0  0  0  0  0  0  0  0
   32.0321   38.7716   59.8746 N   0  0  0  0  0  0  0  0  0  0  0  0
   31.7008   37.7031   60.5632 C   0  0  0  0  0  0  0  0  0  0  0  0
   31.0413   37.8595   61.9091 C   0  0  0  0  0  0  0  0  0  0  0  0
   30.5467   34.9179   60.6181 H   0  0  0  0  0  0  0  0  0  0  0  0
   32.2477   34.3949   60.6548 H   0  0  0  0  0  0  0  0  0  0  0  0
   31.6154   35.4574   61.9353 H   0  0  0  0  0  0  0  0  0  0  0  0
   33.6984   36.2287   56.4996 H   0  0  0  0  0  0  0  0  0  0  0  0
   33.8039   40.4812   56.2392 H   0  0  0  0  0  0  0  0  0  0  0  0
   31.8053   37.9026   62.6853 H   0  0  0  0  0  0  0  0  0  0  0  0
   30.4572   38.7798   61.9227 H   0  0  0  0  0  0  0  0  0  0  0  0
   30.3842   37.0094   62.0928 H   0  0  0  0  0  0  0  0  0  0  0  0
  1  2  1  0  0  0  0
  1 14  1  0  0  0  0
  1 15  1  0  0  0  0
  1 16  1  0  0  0  0
  2 12  2  0  0  0  0
  2  3  1  0  0  0  0
  3  4  2  0  0  0  0
  4 10  1  0  0  0  0
  4  5  1  0  0  0  0
  5  6  2  0  0  0  0
  5 17  1  0  0  0  0
  6  7  1  0  0  0  0
  6  8  1  0  0  0  0
  8  9  2  0  0  0  0
  8 18  1  0  0  0  0
  9 10  1  0  0  0  0
 10 11  2  0  0  0  0
 11 12  1  0  0  0  0
 12 13  1  0  0  0  0
 13 19  1  0  0  0  0
 13 20  1  0  0  0  0
 13 21  1  0  0  0  0
M  END
$$$$
