ZINC000000022391      none
 OpenBabel11202420153D

 30 31  0  0  0  0  0  0  0  0999 V2000
   32.1723   33.6502   56.4142 C   0  0  0  0  0  0  0  0  0  0  0  0
   33.3543   34.2545   57.1749 C   0  0  0  0  0  0  0  0  0  0  0  0
   32.8948   35.4046   57.9574 N   0  0  0  0  0  0  0  0  0  0  0  0
   32.8434   36.8080   57.5125 C   0  0  0  0  0  0  0  0  0  0  0  0
   32.2937   37.5442   58.7182 C   0  0  0  0  0  0  0  0  0  0  0  0
   32.0788   38.7335   58.8147 O   0  0  0  0  0  0  0  0  0  0  0  0
   32.0945   36.6018   59.6607 N   0  0  0  0  0  0  0  0  0  0  0  0
   31.5888   36.8636   60.9415 C   0  0  0  0  0  0  0  0  0  0  0  0
   32.4561   37.1583   61.9850 C   0  0  0  0  0  0  0  0  0  0  0  0
   31.9545   37.4220   63.2444 C   0  0  0  0  0  0  0  0  0  0  0  0
   30.5906   37.3806   63.4696 C   0  0  0  0  0  0  0  0  0  0  0  0
   29.7249   37.0819   62.4339 C   0  0  0  0  0  0  0  0  0  0  0  0
   30.2203   36.8233   61.1705 C   0  0  0  0  0  0  0  0  0  0  0  0
   29.2760   36.4973   60.0422 C   0  0  0  0  0  0  0  0  0  0  0  0
   32.4382   35.3852   59.2227 C   0  0  0  0  0  0  0  0  0  0  0  0
   32.3173   33.9637   60.1691 S   0  0  0  0  0  0  0  0  0  0  0  0
   31.7497   34.3995   55.7448 H   0  0  0  0  0  0  0  0  0  0  0  0
   32.5143   32.7946   55.8319 H   0  0  0  0  0  0  0  0  0  0  0  0
   31.4111   33.3261   57.1238 H   0  0  0  0  0  0  0  0  0  0  0  0
   34.1155   34.5788   56.4652 H   0  0  0  0  0  0  0  0  0  0  0  0
   33.7770   33.5053   57.8441 H   0  0  0  0  0  0  0  0  0  0  0  0
   32.1735   36.9156   56.6593 H   0  0  0  0  0  0  0  0  0  0  0  0
   33.8406   37.1707   57.2636 H   0  0  0  0  0  0  0  0  0  0  0  0
   33.5216   37.1861   61.8109 H   0  0  0  0  0  0  0  0  0  0  0  0
   32.6282   37.6563   64.0553 H   0  0  0  0  0  0  0  0  0  0  0  0
   30.2009   37.5825   64.4565 H   0  0  0  0  0  0  0  0  0  0  0  0
   28.6602   37.0504   62.6127 H   0  0  0  0  0  0  0  0  0  0  0  0
   29.1165   35.4198   60.0018 H   0  0  0  0  0  0  0  0  0  0  0  0
   28.3231   36.9996   60.2092 H   0  0  0  0  0  0  0  0  0  0  0  0
   29.7053   36.8367   59.0996 H   0  0  0  0  0  0  0  0  0  0  0  0
  1  2  1  0  0  0  0
  1 17  1  0  0  0  0
  1 18  1  0  0  0  0
  1 19  1  0  0  0  0
  2  3  1  0  0  0  0
  2 20  1  0  0  0  0
  2 21  1  0  0  0  0
  3 15  1  0  0  0  0
  3  4  1  0  0  0  0
  4  5  1  0  0  0  0
  4 22  1  0  0  0  0
  4 23  1  0  0  0  0
  5  6  2  0  0  0  0
  5  7  1  0  0  0  0
  7  8  1  0  0  0  0
  7 15  1  0  0  0  0
  8 13  2  0  0  0  0
  8  9  1  0  0  0  0
  9 10  2  0  0  0  0
  9 24  1  0  0  0  0
 10 11  1  0  0  0  0
 10 25  1  0  0  0  0
 11 12  2  0  0  0  0
 11 26  1  0  0  0  0
 12 13  1  0  0  0  0
 12 27  1  0  0  0  0
 13 14  1  0  0  0  0
 14 28  1  0  0  0  0
 14 29  1  0  0  0  0
 14 30  1  0  0  0  0
 15 16  2  0  0  0  0
M  END
$$$$
