ZINC000000036101      none
 OpenBabel11202420153D

 34 36  0  0  0  0  0  0  0  0999 V2000
   34.0670   36.3424   55.0429 C   0  0  0  0  0  0  0  0  0  0  0  0
   33.5337   36.8383   56.3623 C   0  0  0  0  0  0  0  0  0  0  0  0
   33.1834   35.9360   57.3492 C   0  0  0  0  0  0  0  0  0  0  0  0
   32.6996   36.3911   58.5616 C   0  0  0  0  0  0  0  0  0  0  0  0
   32.5611   37.7482   58.7850 C   0  0  0  0  0  0  0  0  0  0  0  0
   32.0341   38.2443   60.1069 C   0  0  0  0  0  0  0  0  0  0  0  0
   30.5934   37.2607   60.5895 S   0  0  0  0  0  0  0  0  0  0  0  0
   30.5592   37.5963   62.3188 C   0  0  0  0  0  0  0  0  0  0  0  0
   30.4264   38.7765   62.8853 N   0  0  0  0  0  0  0  0  0  0  0  0
   30.4388   38.6664   64.1644 N   0  0  0  0  0  0  0  0  0  0  0  0
   30.5865   37.4337   64.5106 N   0  0  0  0  0  0  0  0  0  0  0  0
   30.6713   36.6839   63.3242 N   0  0  0  0  0  0  0  0  0  0  0  0
   30.8356   35.2967   63.2023 C   0  0  0  0  0  0  0  0  0  0  0  0
   29.8952   34.4342   63.7490 C   0  0  0  0  0  0  0  0  0  0  0  0
   30.0568   33.0682   63.6223 C   0  0  0  0  0  0  0  0  0  0  0  0
   31.1599   32.5595   62.9616 C   0  0  0  0  0  0  0  0  0  0  0  0
   32.1014   33.4162   62.4210 C   0  0  0  0  0  0  0  0  0  0  0  0
   31.9421   34.7830   62.5396 C   0  0  0  0  0  0  0  0  0  0  0  0
   32.9065   38.6503   57.7962 C   0  0  0  0  0  0  0  0  0  0  0  0
   33.3899   38.1952   56.5837 C   0  0  0  0  0  0  0  0  0  0  0  0
   33.2387   36.1864   54.3517 H   0  0  0  0  0  0  0  0  0  0  0  0
   34.7526   37.0810   54.6274 H   0  0  0  0  0  0  0  0  0  0  0  0
   34.5954   35.4012   55.1952 H   0  0  0  0  0  0  0  0  0  0  0  0
   33.2919   34.8757   57.1748 H   0  0  0  0  0  0  0  0  0  0  0  0
   32.4302   35.6864   59.3343 H   0  0  0  0  0  0  0  0  0  0  0  0
   32.8101   38.1489   60.8663 H   0  0  0  0  0  0  0  0  0  0  0  0
   31.7445   39.2909   60.0128 H   0  0  0  0  0  0  0  0  0  0  0  0
   29.0359   34.8308   64.2693 H   0  0  0  0  0  0  0  0  0  0  0  0
   29.3233   32.3968   64.0435 H   0  0  0  0  0  0  0  0  0  0  0  0
   31.2861   31.4911   62.8675 H   0  0  0  0  0  0  0  0  0  0  0  0
   32.9618   33.0159   61.9052 H   0  0  0  0  0  0  0  0  0  0  0  0
   32.6775   35.4515   62.1169 H   0  0  0  0  0  0  0  0  0  0  0  0
   32.7983   39.7106   57.9707 H   0  0  0  0  0  0  0  0  0  0  0  0
   33.6594   38.8999   55.8109 H   0  0  0  0  0  0  0  0  0  0  0  0
  1  2  1  0  0  0  0
  1 21  1  0  0  0  0
  1 22  1  0  0  0  0
  1 23  1  0  0  0  0
  2 20  2  0  0  0  0
  2  3  1  0  0  0  0
  3  4  2  0  0  0  0
  3 24  1  0  0  0  0
  4  5  1  0  0  0  0
  4 25  1  0  0  0  0
  5  6  1  0  0  0  0
  5 19  2  0  0  0  0
  6  7  1  0  0  0  0
  6 26  1  0  0  0  0
  6 27  1  0  0  0  0
  7  8  1  0  0  0  0
  8 12  1  0  0  0  0
  8  9  2  0  0  0  0
  9 10  1  0  0  0  0
 10 11  2  0  0  0  0
 11 12  1  0  0  0  0
 12 13  1  0  0  0  0
 13 18  2  0  0  0  0
 13 14  1  0  0  0  0
 14 15  2  0  0  0  0
 14 28  1  0  0  0  0
 15 16  1  0  0  0  0
 15 29  1  0  0  0  0
 16 17  2  0  0  0  0
 16 30  1  0  0  0  0
 17 18  1  0  0  0  0
 17 31  1  0  0  0  0
 18 32  1  0  0  0  0
 19 20  1  0  0  0  0
 19 33  1  0  0  0  0
 20 34  1  0  0  0  0
M  END
$$$$
