ZINC000000036668      none
 OpenBabel11202420153D

 40 42  0  0  0  0  0  0  0  0999 V2000
   31.3420   33.3240   56.4561 C   0  0  0  0  0  0  0  0  0  0  0  0
   32.8495   33.6125   57.4229 S   0  0  0  0  0  0  0  0  0  0  0  0
   32.5918   35.2239   58.0875 C   0  0  0  0  0  0  0  0  0  0  0  0
   31.9999   35.5221   59.2597 C   0  0  0  0  0  0  0  0  0  0  0  0
   31.4411   34.5137   60.2304 C   0  0  0  0  0  0  0  0  0  0  0  0
   31.8677   34.8739   61.6301 C   0  0  0  0  0  0  0  0  0  0  0  0
   33.0466   34.9278   61.9099 O   0  0  0  0  0  0  0  0  0  0  0  0
   30.9390   35.1361   62.5711 N   0  0  0  0  0  0  0  0  0  0  0  0
   31.3352   35.4705   63.8708 C   0  0  0  0  0  0  0  0  0  0  0  0
   30.5218   35.1510   64.9501 C   0  0  0  0  0  0  0  0  0  0  0  0
   30.9180   35.4782   66.2321 C   0  0  0  0  0  0  0  0  0  0  0  0
   32.1184   36.1322   66.4407 C   0  0  0  0  0  0  0  0  0  0  0  0
   32.9280   36.4565   65.3677 C   0  0  0  0  0  0  0  0  0  0  0  0
   32.5399   36.1278   64.0837 C   0  0  0  0  0  0  0  0  0  0  0  0
   31.9822   36.8866   59.4374 N   0  0  0  0  0  0  0  0  0  0  0  0
   31.4164   37.5771   60.5991 C   0  0  0  0  0  0  0  0  0  0  0  0
   32.5704   37.5062   58.3580 C   0  0  0  0  0  0  0  0  0  0  0  0
   32.8046   38.8387   58.0315 C   0  0  0  0  0  0  0  0  0  0  0  0
   33.4313   39.1526   56.8459 C   0  0  0  0  0  0  0  0  0  0  0  0
   33.8329   38.1521   55.9709 C   0  0  0  0  0  0  0  0  0  0  0  0
   33.6202   36.8373   56.2754 C   0  0  0  0  0  0  0  0  0  0  0  0
   32.9821   36.4966   57.4693 C   0  0  0  0  0  0  0  0  0  0  0  0
   31.3915   32.3393   55.9911 H   0  0  0  0  0  0  0  0  0  0  0  0
   30.4740   33.3720   57.1136 H   0  0  0  0  0  0  0  0  0  0  0  0
   31.2547   34.0871   55.6828 H   0  0  0  0  0  0  0  0  0  0  0  0
   30.3528   34.5160   60.1703 H   0  0  0  0  0  0  0  0  0  0  0  0
   31.8167   33.5215   59.9799 H   0  0  0  0  0  0  0  0  0  0  0  0
   29.9962   35.0930   62.3473 H   0  0  0  0  0  0  0  0  0  0  0  0
   29.5821   34.6442   64.7874 H   0  0  0  0  0  0  0  0  0  0  0  0
   30.2878   35.2263   67.0723 H   0  0  0  0  0  0  0  0  0  0  0  0
   32.4239   36.3908   67.4438 H   0  0  0  0  0  0  0  0  0  0  0  0
   33.8648   36.9676   65.5338 H   0  0  0  0  0  0  0  0  0  0  0  0
   33.1723   36.3820   63.2459 H   0  0  0  0  0  0  0  0  0  0  0  0
   32.1869   37.6984   61.3604 H   0  0  0  0  0  0  0  0  0  0  0  0
   31.0482   38.5569   60.2954 H   0  0  0  0  0  0  0  0  0  0  0  0
   30.5933   36.9895   61.0056 H   0  0  0  0  0  0  0  0  0  0  0  0
   32.4957   39.6240   58.7056 H   0  0  0  0  0  0  0  0  0  0  0  0
   33.6119   40.1872   56.5943 H   0  0  0  0  0  0  0  0  0  0  0  0
   34.3228   38.4151   55.0450 H   0  0  0  0  0  0  0  0  0  0  0  0
   33.9340   36.0647   55.5892 H   0  0  0  0  0  0  0  0  0  0  0  0
  1  2  1  0  0  0  0
  1 23  1  0  0  0  0
  1 24  1  0  0  0  0
  1 25  1  0  0  0  0
  2  3  1  0  0  0  0
  3 22  1  0  0  0  0
  3  4  2  0  0  0  0
  4  5  1  0  0  0  0
  4 15  1  0  0  0  0
  5  6  1  0  0  0  0
  5 26  1  0  0  0  0
  5 27  1  0  0  0  0
  6  7  2  0  0  0  0
  6  8  1  0  0  0  0
  8  9  1  0  0  0  0
  8 28  1  0  0  0  0
  9 14  2  0  0  0  0
  9 10  1  0  0  0  0
 10 11  2  0  0  0  0
 10 29  1  0  0  0  0
 11 12  1  0  0  0  0
 11 30  1  0  0  0  0
 12 13  2  0  0  0  0
 12 31  1  0  0  0  0
 13 14  1  0  0  0  0
 13 32  1  0  0  0  0
 14 33  1  0  0  0  0
 15 16  1  0  0  0  0
 15 17  1  0  0  0  0
 16 34  1  0  0  0  0
 16 35  1  0  0  0  0
 16 36  1  0  0  0  0
 17 22  2  0  0  0  0
 17 18  1  0  0  0  0
 18 19  2  0  0  0  0
 18 37  1  0  0  0  0
 19 20  1  0  0  0  0
 19 38  1  0  0  0  0
 20 21  2  0  0  0  0
 20 39  1  0  0  0  0
 21 22  1  0  0  0  0
 21 40  1  0  0  0  0
M  END
$$$$
