ZINC000000057774      none
 OpenBabel11202420153D

 38 40  0  0  0  0  0  0  0  0999 V2000
   29.4416   36.6450   61.2539 C   0  0  0  0  0  0  0  0  0  0  0  0
   30.4116   37.5039   61.8563 O   0  0  0  0  0  0  0  0  0  0  0  0
   30.1819   37.8902   63.1398 C   0  0  0  0  0  0  0  0  0  0  0  0
   29.4618   39.0473   63.3959 C   0  0  0  0  0  0  0  0  0  0  0  0
   29.2222   39.4404   64.6967 C   0  0  0  0  0  0  0  0  0  0  0  0
   29.7136   38.6794   65.7572 C   0  0  0  0  0  0  0  0  0  0  0  0
   29.4613   39.1033   67.1543 C   0  0  0  0  0  0  0  0  0  0  0  0
   30.3412   39.9307   67.7985 C   0  0  0  0  0  0  0  0  0  0  0  0
   31.5806   40.4253   67.0982 C   0  0  0  0  0  0  0  0  0  0  0  0
   30.0669   40.3146   69.1362 C   0  0  0  0  0  0  0  0  0  0  0  0
   30.9507   41.1617   69.8222 C   0  0  0  0  0  0  0  0  0  0  0  0
   30.6825   41.5284   71.1085 C   0  0  0  0  0  0  0  0  0  0  0  0
   31.7784   42.5763   71.9537 Cl  0  0  0  0  0  0  0  0  0  0  0  0
   29.5327   41.0661   71.7486 C   0  0  0  0  0  0  0  0  0  0  0  0
   29.2751   41.4434   73.0272 O   0  5  0  0  0  0  0  0  0  0  0  0
   28.6494   40.2298   71.0874 C   0  0  0  0  0  0  0  0  0  0  0  0
   28.9063   39.8464   69.7781 C   0  0  0  0  0  0  0  0  0  0  0  0
   28.0440   39.0297   69.1336 O   0  0  0  0  0  0  0  0  0  0  0  0
   28.2669   38.6423   67.8666 C   0  0  0  0  0  0  0  0  0  0  0  0
   27.4744   37.9057   67.3089 O   0  0  0  0  0  0  0  0  0  0  0  0
   30.4379   37.5157   65.5003 C   0  0  0  0  0  0  0  0  0  0  0  0
   30.6707   37.1233   64.1945 C   0  0  0  0  0  0  0  0  0  0  0  0
   31.3769   35.9892   63.9407 O   0  0  0  0  0  0  0  0  0  0  0  0
   32.7936   36.1228   63.8098 C   0  0  0  0  0  0  0  0  0  0  0  0
   28.4726   37.1442   61.2405 H   0  0  0  0  0  0  0  0  0  0  0  0
   29.7451   36.4137   60.2328 H   0  0  0  0  0  0  0  0  0  0  0  0
   29.3667   35.7219   61.8285 H   0  0  0  0  0  0  0  0  0  0  0  0
   29.0841   39.6398   62.5756 H   0  0  0  0  0  0  0  0  0  0  0  0
   28.6576   40.3397   64.8937 H   0  0  0  0  0  0  0  0  0  0  0  0
   31.3599   41.3627   66.5878 H   0  0  0  0  0  0  0  0  0  0  0  0
   32.3713   40.5878   67.8308 H   0  0  0  0  0  0  0  0  0  0  0  0
   31.9070   39.6831   66.3699 H   0  0  0  0  0  0  0  0  0  0  0  0
   31.8427   41.5232   69.3319 H   0  0  0  0  0  0  0  0  0  0  0  0
   27.7612   39.8764   71.5897 H   0  0  0  0  0  0  0  0  0  0  0  0
   30.8160   36.9217   66.3192 H   0  0  0  0  0  0  0  0  0  0  0  0
   33.2076   36.5249   64.7345 H   0  0  0  0  0  0  0  0  0  0  0  0
   33.2337   35.1460   63.6092 H   0  0  0  0  0  0  0  0  0  0  0  0
   33.0201   36.7994   62.9859 H   0  0  0  0  0  0  0  0  0  0  0  0
  1  2  1  0  0  0  0
  1 25  1  0  0  0  0
  1 26  1  0  0  0  0
  1 27  1  0  0  0  0
  2  3  1  0  0  0  0
  3 22  2  0  0  0  0
  3  4  1  0  0  0  0
  4  5  2  0  0  0  0
  4 28  1  0  0  0  0
  5  6  1  0  0  0  0
  5 29  1  0  0  0  0
  6  7  1  0  0  0  0
  6 21  2  0  0  0  0
  7 19  1  0  0  0  0
  7  8  2  0  0  0  0
  8  9  1  0  0  0  0
  8 10  1  0  0  0  0
  9 30  1  0  0  0  0
  9 31  1  0  0  0  0
  9 32  1  0  0  0  0
 10 17  2  0  0  0  0
 10 11  1  0  0  0  0
 11 12  2  0  0  0  0
 11 33  1  0  0  0  0
 12 13  1  0  0  0  0
 12 14  1  0  0  0  0
 14 15  1  0  0  0  0
 14 16  2  0  0  0  0
 16 17  1  0  0  0  0
 16 34  1  0  0  0  0
 17 18  1  0  0  0  0
 18 19  1  0  0  0  0
 19 20  2  0  0  0  0
 21 22  1  0  0  0  0
 21 35  1  0  0  0  0
 22 23  1  0  0  0  0
 23 24  1  0  0  0  0
 24 36  1  0  0  0  0
 24 37  1  0  0  0  0
 24 38  1  0  0  0  0
M  CHG  1  15  -1
M  END
$$$$
