ZINC000000036029      none
 OpenBabel11202420153D

 41 43  0  0  0  0  0  0  0  0999 V2000
   30.5661   40.6850   67.4454 C   0  0  0  0  0  0  0  0  0  0  0  0
   31.0288   39.3348   67.5176 O   0  0  0  0  0  0  0  0  0  0  0  0
   31.3123   38.7170   66.3430 C   0  0  0  0  0  0  0  0  0  0  0  0
   31.1528   39.4015   65.1436 C   0  0  0  0  0  0  0  0  0  0  0  0
   31.4397   38.7784   63.9498 C   0  0  0  0  0  0  0  0  0  0  0  0
   31.8914   37.4559   63.9449 C   0  0  0  0  0  0  0  0  0  0  0  0
   32.2006   36.7843   62.6675 C   0  0  0  0  0  0  0  0  0  0  0  0
   33.0164   35.8832   62.6362 O   0  0  0  0  0  0  0  0  0  0  0  0
   31.5787   37.1698   61.5356 N   0  0  0  0  0  0  0  0  0  0  0  0
   31.8855   36.5032   60.2677 C   0  0  0  0  0  0  0  0  0  0  0  0
   32.4210   37.5133   59.2858 C   0  0  0  0  0  0  0  0  0  0  0  0
   32.5451   38.8198   59.6475 C   0  0  0  0  0  0  0  0  0  0  0  0
   33.0424   39.7672   58.7551 C   0  0  0  0  0  0  0  0  0  0  0  0
   33.4096   39.4156   57.4923 C   0  0  0  0  0  0  0  0  0  0  0  0
   33.2908   38.0773   57.0811 C   0  0  0  0  0  0  0  0  0  0  0  0
   33.6602   37.6765   55.7856 C   0  0  0  0  0  0  0  0  0  0  0  0
   33.5318   36.3713   55.4224 C   0  0  0  0  0  0  0  0  0  0  0  0
   33.0382   35.4228   56.3165 C   0  0  0  0  0  0  0  0  0  0  0  0
   32.6710   35.7740   57.5790 C   0  0  0  0  0  0  0  0  0  0  0  0
   32.7892   37.1126   57.9904 C   0  0  0  0  0  0  0  0  0  0  0  0
   32.0499   36.7712   65.1524 C   0  0  0  0  0  0  0  0  0  0  0  0
   31.7666   37.4037   66.3427 C   0  0  0  0  0  0  0  0  0  0  0  0
   31.9403   36.6814   67.6231 N   0  0  0  0  0  0  0  0  0  0  0  0
   31.6851   37.2382   68.6758 O   0  0  0  0  0  0  0  0  0  0  0  0
   32.3385   35.5304   67.6237 O   0  0  0  0  0  0  0  0  0  0  0  0
   31.3238   41.3035   66.9644 H   0  0  0  0  0  0  0  0  0  0  0  0
   29.6443   40.7225   66.8648 H   0  0  0  0  0  0  0  0  0  0  0  0
   30.3771   41.0585   68.4518 H   0  0  0  0  0  0  0  0  0  0  0  0
   30.8038   40.4235   65.1481 H   0  0  0  0  0  0  0  0  0  0  0  0
   31.3157   39.3109   63.0184 H   0  0  0  0  0  0  0  0  0  0  0  0
   30.9278   37.8887   61.5605 H   0  0  0  0  0  0  0  0  0  0  0  0
   32.6335   35.7285   60.4363 H   0  0  0  0  0  0  0  0  0  0  0  0
   30.9786   36.0513   59.8659 H   0  0  0  0  0  0  0  0  0  0  0  0
   32.2571   39.1259   60.6424 H   0  0  0  0  0  0  0  0  0  0  0  0
   33.1344   40.7966   59.0686 H   0  0  0  0  0  0  0  0  0  0  0  0
   33.7898   40.1614   56.8100 H   0  0  0  0  0  0  0  0  0  0  0  0
   34.0437   38.4006   55.0820 H   0  0  0  0  0  0  0  0  0  0  0  0
   33.8164   36.0658   54.4264 H   0  0  0  0  0  0  0  0  0  0  0  0
   32.9460   34.3934   56.0027 H   0  0  0  0  0  0  0  0  0  0  0  0
   32.2908   35.0280   58.2611 H   0  0  0  0  0  0  0  0  0  0  0  0
   32.3990   35.7493   65.1528 H   0  0  0  0  0  0  0  0  0  0  0  0
  1  2  1  0  0  0  0
  1 26  1  0  0  0  0
  1 27  1  0  0  0  0
  1 28  1  0  0  0  0
  2  3  1  0  0  0  0
  3 22  2  0  0  0  0
  3  4  1  0  0  0  0
  4  5  2  0  0  0  0
  4 29  1  0  0  0  0
  5  6  1  0  0  0  0
  5 30  1  0  0  0  0
  6  7  1  0  0  0  0
  6 21  2  0  0  0  0
  7  8  2  0  0  0  0
  7  9  1  0  0  0  0
  9 10  1  0  0  0  0
  9 31  1  0  0  0  0
 10 11  1  0  0  0  0
 10 32  1  0  0  0  0
 10 33  1  0  0  0  0
 11 20  2  0  0  0  0
 11 12  1  0  0  0  0
 12 13  2  0  0  0  0
 12 34  1  0  0  0  0
 13 14  1  0  0  0  0
 13 35  1  0  0  0  0
 14 15  2  0  0  0  0
 14 36  1  0  0  0  0
 15 20  1  0  0  0  0
 15 16  1  0  0  0  0
 16 17  2  0  0  0  0
 16 37  1  0  0  0  0
 17 18  1  0  0  0  0
 17 38  1  0  0  0  0
 18 19  2  0  0  0  0
 18 39  1  0  0  0  0
 19 20  1  0  0  0  0
 19 40  1  0  0  0  0
 21 22  1  0  0  0  0
 21 41  1  0  0  0  0
 22 23  1  0  0  0  0
 23 24  2  0  0  0  0
 23 25  2  0  0  0  0
M  END
$$$$
