ZINC000000034905      none
 OpenBabel11202420153D

 25 26  0  0  0  0  0  0  0  0999 V2000
   34.2972   32.1334   52.6635 N   0  0  0  0  0  0  0  0  0  0  0  0
   34.2876   32.0812   54.0101 C   0  0  0  0  0  0  0  0  0  0  0  0
   34.7669   31.1260   54.5834 O   0  0  0  0  0  0  0  0  0  0  0  0
   33.6812   33.2098   54.8036 C   0  0  0  0  0  0  0  0  0  0  0  0
   34.9531   34.4465   55.1625 S   0  0  0  0  0  0  0  0  0  0  0  0
   33.9964   35.6147   56.0706 C   0  0  0  0  0  0  0  0  0  0  0  0
   33.3489   35.3910   57.1940 N   0  0  0  0  0  0  0  0  0  0  0  0
   32.7530   36.4574   57.5898 N   0  0  0  0  0  0  0  0  0  0  0  0
   32.9742   37.4267   56.7694 N   0  0  0  0  0  0  0  0  0  0  0  0
   33.7883   36.9147   55.7438 N   0  0  0  0  0  0  0  0  0  0  0  0
   34.2841   37.6026   54.6253 C   0  0  0  0  0  0  0  0  0  0  0  0
   34.5227   36.9214   53.4400 C   0  0  0  0  0  0  0  0  0  0  0  0
   35.0103   37.5997   52.3401 C   0  0  0  0  0  0  0  0  0  0  0  0
   35.2611   38.9595   52.4181 C   0  0  0  0  0  0  0  0  0  0  0  0
   35.7376   39.6204   51.3404 F   0  0  0  0  0  0  0  0  0  0  0  0
   35.0239   39.6428   53.5987 C   0  0  0  0  0  0  0  0  0  0  0  0
   34.5361   38.9675   54.7029 C   0  0  0  0  0  0  0  0  0  0  0  0
   34.3047   39.6336   55.8553 F   0  0  0  0  0  0  0  0  0  0  0  0
   33.9138   32.8974   52.2048 H   0  0  0  0  0  0  0  0  0  0  0  0
   34.6875   31.4070   52.1527 H   0  0  0  0  0  0  0  0  0  0  0  0
   33.2783   32.8210   55.7388 H   0  0  0  0  0  0  0  0  0  0  0  0
   32.8795   33.6701   54.2262 H   0  0  0  0  0  0  0  0  0  0  0  0
   34.3269   35.8611   53.3777 H   0  0  0  0  0  0  0  0  0  0  0  0
   35.1958   37.0691   51.4179 H   0  0  0  0  0  0  0  0  0  0  0  0
   35.2240   40.7023   53.6588 H   0  0  0  0  0  0  0  0  0  0  0  0
  1  2  1  0  0  0  0
  1 19  1  0  0  0  0
  1 20  1  0  0  0  0
  2  3  2  0  0  0  0
  2  4  1  0  0  0  0
  4  5  1  0  0  0  0
  4 21  1  0  0  0  0
  4 22  1  0  0  0  0
  5  6  1  0  0  0  0
  6 10  1  0  0  0  0
  6  7  2  0  0  0  0
  7  8  1  0  0  0  0
  8  9  2  0  0  0  0
  9 10  1  0  0  0  0
 10 11  1  0  0  0  0
 11 17  2  0  0  0  0
 11 12  1  0  0  0  0
 12 13  2  0  0  0  0
 12 23  1  0  0  0  0
 13 14  1  0  0  0  0
 13 24  1  0  0  0  0
 14 15  1  0  0  0  0
 14 16  2  0  0  0  0
 16 17  1  0  0  0  0
 16 25  1  0  0  0  0
 17 18  1  0  0  0  0
M  END
$$$$
