ZINC000000054506      none
 OpenBabel11202420153D

 30 31  0  0  1  0  0  0  0  0999 V2000
   31.4093   32.6216   60.5876 C   0  0  0  0  0  0  0  0  0  0  0  0
   31.2147   34.0082   60.1563 N   0  0  0  0  0  0  0  0  0  0  0  0
   31.7492   35.0177   60.8715 C   0  0  0  0  0  0  0  0  0  0  0  0
   32.3912   34.7783   61.8722 O   0  0  0  0  0  0  0  0  0  0  0  0
   31.5490   36.4440   60.4278 C   0  0  1  0  0  0  0  0  0  0  0  0
   31.9614   36.6019   59.4313 H   0  0  0  0  0  0  0  0  0  0  0  0
   30.0533   36.8337   60.4759 C   0  0  0  0  0  0  0  0  0  0  0  0
   29.8764   37.4580   61.8425 C   0  0  0  0  0  0  0  0  0  0  0  0
   28.8094   37.6439   62.3885 O   0  0  0  0  0  0  0  0  0  0  0  0
   31.0738   37.7773   62.3634 N   0  0  0  0  0  0  0  0  0  0  0  0
   31.2569   38.3652   63.6211 C   0  0  0  0  0  0  0  0  0  0  0  0
   32.4150   38.1128   64.3443 C   0  0  0  0  0  0  0  0  0  0  0  0
   32.5940   38.6939   65.5844 C   0  0  0  0  0  0  0  0  0  0  0  0
   31.6182   39.5281   66.1065 C   0  0  0  0  0  0  0  0  0  0  0  0
   31.7947   40.0956   67.3198 F   0  0  0  0  0  0  0  0  0  0  0  0
   30.4638   39.7806   65.3869 C   0  0  0  0  0  0  0  0  0  0  0  0
   30.2809   39.2015   64.1464 C   0  0  0  0  0  0  0  0  0  0  0  0
   32.1640   37.4365   61.4420 C   0  0  0  0  0  0  0  0  0  0  0  0
   30.9895   32.4891   61.5848 H   0  0  0  0  0  0  0  0  0  0  0  0
   30.9081   31.9504   59.8901 H   0  0  0  0  0  0  0  0  0  0  0  0
   32.4750   32.3938   60.6089 H   0  0  0  0  0  0  0  0  0  0  0  0
   30.7012   34.1996   59.3560 H   0  0  0  0  0  0  0  0  0  0  0  0
   29.4251   35.9484   60.3767 H   0  0  0  0  0  0  0  0  0  0  0  0
   29.8198   37.5557   59.6935 H   0  0  0  0  0  0  0  0  0  0  0  0
   33.1732   37.4591   63.9394 H   0  0  0  0  0  0  0  0  0  0  0  0
   33.4946   38.4979   66.1473 H   0  0  0  0  0  0  0  0  0  0  0  0
   29.7048   40.4312   65.7958 H   0  0  0  0  0  0  0  0  0  0  0  0
   29.3797   39.3992   63.5852 H   0  0  0  0  0  0  0  0  0  0  0  0
   32.5192   38.3311   60.9304 H   0  0  0  0  0  0  0  0  0  0  0  0
   32.9817   36.9617   61.9842 H   0  0  0  0  0  0  0  0  0  0  0  0
  1  2  1  0  0  0  0
  1 19  1  0  0  0  0
  1 20  1  0  0  0  0
  1 21  1  0  0  0  0
  2  3  1  0  0  0  0
  2 22  1  0  0  0  0
  3  4  2  0  0  0  0
  3  5  1  0  0  0  0
  5  6  1  6  0  0  0
  5 18  1  0  0  0  0
  5  7  1  0  0  0  0
  7  8  1  0  0  0  0
  7 23  1  0  0  0  0
  7 24  1  0  0  0  0
  8  9  2  0  0  0  0
  8 10  1  0  0  0  0
 10 11  1  0  0  0  0
 10 18  1  0  0  0  0
 11 17  2  0  0  0  0
 11 12  1  0  0  0  0
 12 13  2  0  0  0  0
 12 25  1  0  0  0  0
 13 14  1  0  0  0  0
 13 26  1  0  0  0  0
 14 15  1  0  0  0  0
 14 16  2  0  0  0  0
 16 17  1  0  0  0  0
 16 27  1  0  0  0  0
 17 28  1  0  0  0  0
 18 29  1  0  0  0  0
 18 30  1  0  0  0  0
M  END
$$$$
