ZINC000000051556      none
 OpenBabel11202420153D

 41 44  0  0  0  0  0  0  0  0999 V2000
   30.3267   39.7986   65.6073 C   0  0  0  0  0  0  0  0  0  0  0  0
   31.4519   39.6491   64.7391 O   0  0  0  0  0  0  0  0  0  0  0  0
   31.3836   38.6677   63.8068 C   0  0  0  0  0  0  0  0  0  0  0  0
   30.8443   38.9405   62.5510 C   0  0  0  0  0  0  0  0  0  0  0  0
   30.7612   37.9886   61.5844 C   0  0  0  0  0  0  0  0  0  0  0  0
   31.2111   36.6759   61.8211 C   0  0  0  0  0  0  0  0  0  0  0  0
   31.1226   35.6861   60.8281 C   0  0  0  0  0  0  0  0  0  0  0  0
   31.5667   34.4252   61.0917 C   0  0  0  0  0  0  0  0  0  0  0  0
   32.1080   34.1015   62.3322 C   0  0  0  0  0  0  0  0  0  0  0  0
   32.2084   35.0394   63.3184 C   0  0  0  0  0  0  0  0  0  0  0  0
   31.7622   36.3425   63.0810 C   0  0  0  0  0  0  0  0  0  0  0  0
   31.8508   37.3807   64.1124 C   0  0  0  0  0  0  0  0  0  0  0  0
   32.3942   37.0920   65.3836 C   0  0  0  0  0  0  0  0  0  0  0  0
   31.8105   36.1210   66.1827 C   0  0  0  0  0  0  0  0  0  0  0  0
   32.2335   35.6805   67.5222 C   0  0  0  0  0  0  0  0  0  0  0  0
   31.3624   34.7212   67.9024 C   0  0  0  0  0  0  0  0  0  0  0  0
   31.4192   34.0072   69.1933 C   0  0  0  0  0  0  0  0  0  0  0  0
   31.5673   32.6184   69.2210 C   0  0  0  0  0  0  0  0  0  0  0  0
   31.6253   31.9585   70.4308 C   0  0  0  0  0  0  0  0  0  0  0  0
   31.5256   32.6679   71.6151 C   0  0  0  0  0  0  0  0  0  0  0  0
   31.3727   34.0427   71.5949 C   0  0  0  0  0  0  0  0  0  0  0  0
   31.3193   34.7165   70.3926 C   0  0  0  0  0  0  0  0  0  0  0  0
   30.4375   34.4961   66.9476 O   0  0  0  0  0  0  0  0  0  0  0  0
   30.6314   35.2924   65.8810 C   0  0  0  0  0  0  0  0  0  0  0  0
   29.9621   35.3223   64.8644 O   0  0  0  0  0  0  0  0  0  0  0  0
   30.5111   40.6170   66.3033 H   0  0  0  0  0  0  0  0  0  0  0  0
   29.4380   40.0182   65.0157 H   0  0  0  0  0  0  0  0  0  0  0  0
   30.1728   38.8748   66.1650 H   0  0  0  0  0  0  0  0  0  0  0  0
   30.4861   39.9370   62.3386 H   0  0  0  0  0  0  0  0  0  0  0  0
   30.3407   38.2419   60.6223 H   0  0  0  0  0  0  0  0  0  0  0  0
   30.7048   35.9234   59.8609 H   0  0  0  0  0  0  0  0  0  0  0  0
   31.4974   33.6658   60.3268 H   0  0  0  0  0  0  0  0  0  0  0  0
   32.4536   33.0950   62.5168 H   0  0  0  0  0  0  0  0  0  0  0  0
   32.6300   34.7762   64.2772 H   0  0  0  0  0  0  0  0  0  0  0  0
   33.2643   37.6277   65.7333 H   0  0  0  0  0  0  0  0  0  0  0  0
   33.0730   36.0531   68.0903 H   0  0  0  0  0  0  0  0  0  0  0  0
   31.6407   32.0634   68.2975 H   0  0  0  0  0  0  0  0  0  0  0  0
   31.7443   30.8853   70.4538 H   0  0  0  0  0  0  0  0  0  0  0  0
   31.5670   32.1455   72.5594 H   0  0  0  0  0  0  0  0  0  0  0  0
   31.2956   34.5899   72.5228 H   0  0  0  0  0  0  0  0  0  0  0  0
   31.2002   35.7898   70.3783 H   0  0  0  0  0  0  0  0  0  0  0  0
  1  2  1  0  0  0  0
  1 26  1  0  0  0  0
  1 27  1  0  0  0  0
  1 28  1  0  0  0  0
  2  3  1  0  0  0  0
  3 12  2  0  0  0  0
  3  4  1  0  0  0  0
  4  5  2  0  0  0  0
  4 29  1  0  0  0  0
  5  6  1  0  0  0  0
  5 30  1  0  0  0  0
  6 11  2  0  0  0  0
  6  7  1  0  0  0  0
  7  8  2  0  0  0  0
  7 31  1  0  0  0  0
  8  9  1  0  0  0  0
  8 32  1  0  0  0  0
  9 10  2  0  0  0  0
  9 33  1  0  0  0  0
 10 11  1  0  0  0  0
 10 34  1  0  0  0  0
 11 12  1  0  0  0  0
 12 13  1  0  0  0  0
 13 14  2  0  0  0  0
 13 35  1  0  0  0  0
 14 24  1  0  0  0  0
 14 15  1  0  0  0  0
 15 16  2  0  0  0  0
 15 36  1  0  0  0  0
 16 17  1  0  0  0  0
 16 23  1  0  0  0  0
 17 22  2  0  0  0  0
 17 18  1  0  0  0  0
 18 19  2  0  0  0  0
 18 37  1  0  0  0  0
 19 20  1  0  0  0  0
 19 38  1  0  0  0  0
 20 21  2  0  0  0  0
 20 39  1  0  0  0  0
 21 22  1  0  0  0  0
 21 40  1  0  0  0  0
 22 41  1  0  0  0  0
 23 24  1  0  0  0  0
 24 25  2  0  0  0  0
M  END
$$$$
