ZINC000000042668      none
 OpenBabel11202420153D

 36 38  0  0  0  0  0  0  0  0999 V2000
   31.4601   33.9915   61.1754 C   0  0  0  0  0  0  0  0  0  0  0  0
   31.9737   33.9264   62.4007 C   0  0  0  0  0  0  0  0  0  0  0  0
   32.2402   35.1617   63.1529 C   0  0  0  0  0  0  0  0  0  0  0  0
   33.0121   35.9899   62.7084 O   0  0  0  0  0  0  0  0  0  0  0  0
   31.6289   35.3762   64.3348 N   0  0  0  0  0  0  0  0  0  0  0  0
   30.7369   34.4277   64.8443 C   0  0  0  0  0  0  0  0  0  0  0  0
   29.9899   33.6253   63.9954 C   0  0  0  0  0  0  0  0  0  0  0  0
   29.1281   32.6828   64.5264 C   0  0  0  0  0  0  0  0  0  0  0  0
   29.0026   32.5299   65.8960 C   0  0  0  0  0  0  0  0  0  0  0  0
   28.0643   31.4908   66.4536 C   0  0  0  0  0  0  0  0  0  0  0  0
   29.7468   33.3270   66.7610 C   0  0  0  0  0  0  0  0  0  0  0  0
   30.6017   34.2784   66.2291 C   0  0  0  0  0  0  0  0  0  0  0  0
   31.4025   35.1837   67.1333 C   0  0  0  0  0  0  0  0  0  0  0  0
   32.0295   36.2637   66.5606 C   0  0  0  0  0  0  0  0  0  0  0  0
   32.9684   37.1629   67.6764 S   0  0  0  0  0  0  0  0  0  0  0  0
   32.5206   36.0046   69.3298 S   0  0  0  0  0  0  0  0  0  0  0  0
   31.5096   34.9023   68.4989 C   0  0  0  0  0  0  0  0  0  0  0  0
   30.7133   33.5915   69.2596 S   0  0  0  0  0  0  0  0  0  0  0  0
   31.8937   36.6081   65.0863 C   0  0  0  0  0  0  0  0  0  0  0  0
   33.1923   37.2444   64.5867 C   0  0  0  0  0  0  0  0  0  0  0  0
   30.7345   37.5873   64.8905 C   0  0  0  0  0  0  0  0  0  0  0  0
   31.2686   33.0845   60.6212 H   0  0  0  0  0  0  0  0  0  0  0  0
   31.2348   34.9515   60.7346 H   0  0  0  0  0  0  0  0  0  0  0  0
   32.1989   32.9666   62.8414 H   0  0  0  0  0  0  0  0  0  0  0  0
   30.0803   33.7361   62.9248 H   0  0  0  0  0  0  0  0  0  0  0  0
   28.5464   32.0585   63.8643 H   0  0  0  0  0  0  0  0  0  0  0  0
   28.5988   30.5494   66.5807 H   0  0  0  0  0  0  0  0  0  0  0  0
   27.6835   31.8255   67.4186 H   0  0  0  0  0  0  0  0  0  0  0  0
   27.2319   31.3460   65.7650 H   0  0  0  0  0  0  0  0  0  0  0  0
   29.6523   33.2142   67.8310 H   0  0  0  0  0  0  0  0  0  0  0  0
   33.0297   37.6734   63.5979 H   0  0  0  0  0  0  0  0  0  0  0  0
   33.5013   38.0294   65.2770 H   0  0  0  0  0  0  0  0  0  0  0  0
   33.9710   36.4839   64.5293 H   0  0  0  0  0  0  0  0  0  0  0  0
   29.8111   37.1341   65.2513 H   0  0  0  0  0  0  0  0  0  0  0  0
   30.9329   38.5018   65.4496 H   0  0  0  0  0  0  0  0  0  0  0  0
   30.6335   37.8237   63.8313 H   0  0  0  0  0  0  0  0  0  0  0  0
  1  2  2  0  0  0  0
  1 22  1  0  0  0  0
  1 23  1  0  0  0  0
  2  3  1  0  0  0  0
  2 24  1  0  0  0  0
  3  4  2  0  0  0  0
  3  5  1  0  0  0  0
  5 19  1  0  0  0  0
  5  6  1  0  0  0  0
  6 12  2  0  0  0  0
  6  7  1  0  0  0  0
  7  8  2  0  0  0  0
  7 25  1  0  0  0  0
  8  9  1  0  0  0  0
  8 26  1  0  0  0  0
  9 10  1  0  0  0  0
  9 11  2  0  0  0  0
 10 27  1  0  0  0  0
 10 28  1  0  0  0  0
 10 29  1  0  0  0  0
 11 12  1  0  0  0  0
 11 30  1  0  0  0  0
 12 13  1  0  0  0  0
 13 17  1  0  0  0  0
 13 14  2  0  0  0  0
 14 15  1  0  0  0  0
 14 19  1  0  0  0  0
 15 16  1  0  0  0  0
 16 17  1  0  0  0  0
 17 18  2  0  0  0  0
 19 20  1  0  0  0  0
 19 21  1  0  0  0  0
 20 31  1  0  0  0  0
 20 32  1  0  0  0  0
 20 33  1  0  0  0  0
 21 34  1  0  0  0  0
 21 35  1  0  0  0  0
 21 36  1  0  0  0  0
M  END
$$$$
