ZINC000000034765      none
 OpenBabel11202420153D

 34 35  0  0  0  0  0  0  0  0999 V2000
   34.9329   38.3588   53.6406 C   0  0  0  0  0  0  0  0  0  0  0  0
   34.3289   37.3960   54.5067 O   0  0  0  0  0  0  0  0  0  0  0  0
   33.9664   37.8220   55.7461 C   0  0  0  0  0  0  0  0  0  0  0  0
   34.1884   39.1376   56.1184 C   0  0  0  0  0  0  0  0  0  0  0  0
   33.8224   39.5806   57.3791 C   0  0  0  0  0  0  0  0  0  0  0  0
   33.2339   38.7177   58.2767 C   0  0  0  0  0  0  0  0  0  0  0  0
   32.9974   37.3859   57.9148 C   0  0  0  0  0  0  0  0  0  0  0  0
   32.3647   36.4632   58.8660 C   0  0  0  0  0  0  0  0  0  0  0  0
   32.0454   36.8540   59.9690 O   0  0  0  0  0  0  0  0  0  0  0  0
   33.3732   36.9367   56.6398 C   0  0  0  0  0  0  0  0  0  0  0  0
   33.1541   35.6466   56.2786 O   0  0  0  0  0  0  0  0  0  0  0  0
   32.9291   35.4070   54.9724 C   0  0  0  0  0  0  0  0  0  0  0  0
   31.9840   35.9271   54.4133 O   0  0  0  0  0  0  0  0  0  0  0  0
   33.7493   34.5860   54.2869 N   0  0  0  0  0  0  0  0  0  0  0  0
   34.9036   33.9496   54.9409 C   0  0  0  0  0  0  0  0  0  0  0  0
   34.8552   32.4432   54.6383 C   0  0  0  0  0  0  0  0  0  0  0  0
   34.7412   32.2520   53.2261 O   0  0  0  0  0  0  0  0  0  0  0  0
   33.5425   32.7851   52.6583 C   0  0  0  0  0  0  0  0  0  0  0  0
   33.5203   34.3044   52.8608 C   0  0  0  0  0  0  0  0  0  0  0  0
   35.1727   37.8894   52.6865 H   0  0  0  0  0  0  0  0  0  0  0  0
   34.2403   39.1841   53.4756 H   0  0  0  0  0  0  0  0  0  0  0  0
   35.8466   38.7373   54.0989 H   0  0  0  0  0  0  0  0  0  0  0  0
   34.6493   39.8222   55.4218 H   0  0  0  0  0  0  0  0  0  0  0  0
   33.9992   40.6085   57.6593 H   0  0  0  0  0  0  0  0  0  0  0  0
   32.9505   39.0694   59.2578 H   0  0  0  0  0  0  0  0  0  0  0  0
   32.1839   35.4366   58.5836 H   0  0  0  0  0  0  0  0  0  0  0  0
   35.8278   34.3757   54.5504 H   0  0  0  0  0  0  0  0  0  0  0  0
   34.8506   34.1108   56.0176 H   0  0  0  0  0  0  0  0  0  0  0  0
   33.9950   31.9965   55.1368 H   0  0  0  0  0  0  0  0  0  0  0  0
   35.7698   31.9708   54.9970 H   0  0  0  0  0  0  0  0  0  0  0  0
   32.6775   32.3396   53.1497 H   0  0  0  0  0  0  0  0  0  0  0  0
   33.5120   32.5594   51.5924 H   0  0  0  0  0  0  0  0  0  0  0  0
   32.5508   34.7008   52.5594 H   0  0  0  0  0  0  0  0  0  0  0  0
   34.3076   34.7658   52.2646 H   0  0  0  0  0  0  0  0  0  0  0  0
  1  2  1  0  0  0  0
  1 20  1  0  0  0  0
  1 21  1  0  0  0  0
  1 22  1  0  0  0  0
  2  3  1  0  0  0  0
  3 10  2  0  0  0  0
  3  4  1  0  0  0  0
  4  5  2  0  0  0  0
  4 23  1  0  0  0  0
  5  6  1  0  0  0  0
  5 24  1  0  0  0  0
  6  7  2  0  0  0  0
  6 25  1  0  0  0  0
  7  8  1  0  0  0  0
  7 10  1  0  0  0  0
  8  9  2  0  0  0  0
  8 26  1  0  0  0  0
 10 11  1  0  0  0  0
 11 12  1  0  0  0  0
 12 13  2  0  0  0  0
 12 14  1  0  0  0  0
 14 19  1  0  0  0  0
 14 15  1  0  0  0  0
 15 16  1  0  0  0  0
 15 27  1  0  0  0  0
 15 28  1  0  0  0  0
 16 17  1  0  0  0  0
 16 29  1  0  0  0  0
 16 30  1  0  0  0  0
 17 18  1  0  0  0  0
 18 19  1  0  0  0  0
 18 31  1  0  0  0  0
 18 32  1  0  0  0  0
 19 33  1  0  0  0  0
 19 34  1  0  0  0  0
M  END
$$$$
