ZINC000000039119      none
 OpenBabel11202420153D

 34 37  0  0  0  0  0  0  0  0999 V2000
   31.0210   33.1218   60.0407 C   0  0  0  0  0  0  0  0  0  0  0  0
   32.0401   34.0509   60.4153 O   0  0  0  0  0  0  0  0  0  0  0  0
   32.3825   34.9951   59.4978 C   0  0  0  0  0  0  0  0  0  0  0  0
   32.2417   36.3193   59.7881 C   0  0  0  0  0  0  0  0  0  0  0  0
   31.7068   36.7053   61.1082 C   0  0  0  0  0  0  0  0  0  0  0  0
   30.5335   37.4582   61.1971 C   0  0  0  0  0  0  0  0  0  0  0  0
   30.0366   37.8113   62.4344 C   0  0  0  0  0  0  0  0  0  0  0  0
   30.7032   37.4304   63.5857 C   0  0  0  0  0  0  0  0  0  0  0  0
   31.8688   36.6890   63.5050 C   0  0  0  0  0  0  0  0  0  0  0  0
   32.3743   36.3243   62.2747 C   0  0  0  0  0  0  0  0  0  0  0  0
   32.5673   37.2856   58.9136 O   0  0  0  0  0  0  0  0  0  0  0  0
   33.0560   37.0161   57.6875 C   0  0  0  0  0  0  0  0  0  0  0  0
   33.2412   35.6859   57.2851 C   0  0  0  0  0  0  0  0  0  0  0  0
   33.7481   35.3964   56.0127 C   0  0  0  0  0  0  0  0  0  0  0  0
   34.0673   36.4032   55.1511 C   0  0  0  0  0  0  0  0  0  0  0  0
   33.8934   37.7363   55.5250 C   0  0  0  0  0  0  0  0  0  0  0  0
   34.1190   38.9047   54.8916 O   0  0  0  0  0  0  0  0  0  0  0  0
   33.7895   39.9468   55.6741 C   0  0  0  0  0  0  0  0  0  0  0  0
   33.3331   39.5088   56.8559 C   0  0  0  0  0  0  0  0  0  0  0  0
   33.3865   38.0441   56.7962 C   0  0  0  0  0  0  0  0  0  0  0  0
   32.8902   34.6109   58.2297 C   0  0  0  0  0  0  0  0  0  0  0  0
   33.0310   33.4355   57.9331 O   0  0  0  0  0  0  0  0  0  0  0  0
   31.3399   32.5695   59.1569 H   0  0  0  0  0  0  0  0  0  0  0  0
   30.8450   32.4255   60.8607 H   0  0  0  0  0  0  0  0  0  0  0  0
   30.1005   33.6621   59.8190 H   0  0  0  0  0  0  0  0  0  0  0  0
   30.0146   37.7601   60.2992 H   0  0  0  0  0  0  0  0  0  0  0  0
   29.1275   38.3900   62.5047 H   0  0  0  0  0  0  0  0  0  0  0  0
   30.3117   37.7129   64.5518 H   0  0  0  0  0  0  0  0  0  0  0  0
   32.3840   36.3954   64.4077 H   0  0  0  0  0  0  0  0  0  0  0  0
   33.2839   35.7452   62.2132 H   0  0  0  0  0  0  0  0  0  0  0  0
   33.8877   34.3686   55.7121 H   0  0  0  0  0  0  0  0  0  0  0  0
   34.4579   36.1673   54.1724 H   0  0  0  0  0  0  0  0  0  0  0  0
   33.8795   40.9855   55.3919 H   0  0  0  0  0  0  0  0  0  0  0  0
   32.9948   40.1125   57.6850 H   0  0  0  0  0  0  0  0  0  0  0  0
  1  2  1  0  0  0  0
  1 23  1  0  0  0  0
  1 24  1  0  0  0  0
  1 25  1  0  0  0  0
  2  3  1  0  0  0  0
  3 21  1  0  0  0  0
  3  4  2  0  0  0  0
  4  5  1  0  0  0  0
  4 11  1  0  0  0  0
  5 10  2  0  0  0  0
  5  6  1  0  0  0  0
  6  7  2  0  0  0  0
  6 26  1  0  0  0  0
  7  8  1  0  0  0  0
  7 27  1  0  0  0  0
  8  9  2  0  0  0  0
  8 28  1  0  0  0  0
  9 10  1  0  0  0  0
  9 29  1  0  0  0  0
 10 30  1  0  0  0  0
 11 12  1  0  0  0  0
 12 20  2  0  0  0  0
 12 13  1  0  0  0  0
 13 14  2  0  0  0  0
 13 21  1  0  0  0  0
 14 15  1  0  0  0  0
 14 31  1  0  0  0  0
 15 16  2  0  0  0  0
 15 32  1  0  0  0  0
 16 20  1  0  0  0  0
 16 17  1  0  0  0  0
 17 18  1  0  0  0  0
 18 19  2  0  0  0  0
 18 33  1  0  0  0  0
 19 20  1  0  0  0  0
 19 34  1  0  0  0  0
 21 22  2  0  0  0  0
M  END
$$$$
