ZINC000000048011      none
 OpenBabel11202420153D

 38 40  0  0  0  0  0  0  0  0999 V2000
   34.1348   36.9648   54.7749 C   0  0  0  0  0  0  0  0  0  0  0  0
   33.9632   38.3172   55.2036 O   0  0  0  0  0  0  0  0  0  0  0  0
   33.5286   38.5106   56.4774 C   0  0  0  0  0  0  0  0  0  0  0  0
   33.3411   39.7984   56.9579 C   0  0  0  0  0  0  0  0  0  0  0  0
   32.8997   39.9956   58.2513 C   0  0  0  0  0  0  0  0  0  0  0  0
   32.6433   38.9045   59.0711 C   0  0  0  0  0  0  0  0  0  0  0  0
   32.1961   39.1037   60.3831 N   0  0  0  0  0  0  0  0  0  0  0  0
   31.3992   38.1888   60.9696 C   0  0  0  0  0  0  0  0  0  0  0  0
   31.0682   37.1897   60.3591 O   0  0  0  0  0  0  0  0  0  0  0  0
   30.9247   38.4008   62.3457 C   0  0  0  0  0  0  0  0  0  0  0  0
   29.6944   39.0951   62.5799 C   0  0  0  0  0  0  0  0  0  0  0  0
   28.7184   39.6461   62.7656 N   0  0  0  0  0  0  0  0  0  0  0  0
   31.6641   37.9312   63.4095 C   0  0  0  0  0  0  0  0  0  0  0  0
   31.1097   37.9785   64.7641 C   0  0  0  0  0  0  0  0  0  0  0  0
   30.9335   36.7944   65.4942 C   0  0  0  0  0  0  0  0  0  0  0  0
   30.4183   36.8436   66.7693 C   0  0  0  0  0  0  0  0  0  0  0  0
   30.0592   38.0620   67.3333 C   0  0  0  0  0  0  0  0  0  0  0  0
   30.2259   39.2457   66.6105 C   0  0  0  0  0  0  0  0  0  0  0  0
   30.7477   39.2075   65.3340 C   0  0  0  0  0  0  0  0  0  0  0  0
   29.8013   40.2895   67.3816 O   0  0  0  0  0  0  0  0  0  0  0  0
   28.9960   39.6980   68.4181 C   0  0  0  0  0  0  0  0  0  0  0  0
   29.5321   38.3688   68.5527 O   0  0  0  0  0  0  0  0  0  0  0  0
   32.8363   37.6158   58.5911 C   0  0  0  0  0  0  0  0  0  0  0  0
   33.2732   37.4201   57.2959 C   0  0  0  0  0  0  0  0  0  0  0  0
   34.8684   36.4718   55.4128 H   0  0  0  0  0  0  0  0  0  0  0  0
   33.1826   36.4387   54.8425 H   0  0  0  0  0  0  0  0  0  0  0  0
   34.4842   36.9525   53.7425 H   0  0  0  0  0  0  0  0  0  0  0  0
   33.5407   40.6469   56.3202 H   0  0  0  0  0  0  0  0  0  0  0  0
   32.7541   40.9983   58.6254 H   0  0  0  0  0  0  0  0  0  0  0  0
   32.4600   39.9003   60.8698 H   0  0  0  0  0  0  0  0  0  0  0  0
   32.6524   37.5282   63.2442 H   0  0  0  0  0  0  0  0  0  0  0  0
   31.2063   35.8448   65.0581 H   0  0  0  0  0  0  0  0  0  0  0  0
   30.2870   35.9311   67.3318 H   0  0  0  0  0  0  0  0  0  0  0  0
   30.8773   40.1223   64.7747 H   0  0  0  0  0  0  0  0  0  0  0  0
   27.9496   39.6599   68.1151 H   0  0  0  0  0  0  0  0  0  0  0  0
   29.1056   40.2513   69.3508 H   0  0  0  0  0  0  0  0  0  0  0  0
   32.6414   36.7668   59.2295 H   0  0  0  0  0  0  0  0  0  0  0  0
   33.4197   36.4178   56.9211 H   0  0  0  0  0  0  0  0  0  0  0  0
  1  2  1  0  0  0  0
  1 25  1  0  0  0  0
  1 26  1  0  0  0  0
  1 27  1  0  0  0  0
  2  3  1  0  0  0  0
  3 24  2  0  0  0  0
  3  4  1  0  0  0  0
  4  5  2  0  0  0  0
  4 28  1  0  0  0  0
  5  6  1  0  0  0  0
  5 29  1  0  0  0  0
  6  7  1  0  0  0  0
  6 23  2  0  0  0  0
  7  8  1  0  0  0  0
  7 30  1  0  0  0  0
  8  9  2  0  0  0  0
  8 10  1  0  0  0  0
 10 11  1  0  0  0  0
 10 13  2  0  0  0  0
 11 12  3  0  0  0  0
 13 14  1  0  0  0  0
 13 31  1  0  0  0  0
 14 19  2  0  0  0  0
 14 15  1  0  0  0  0
 15 16  2  0  0  0  0
 15 32  1  0  0  0  0
 16 17  1  0  0  0  0
 16 33  1  0  0  0  0
 17 22  1  0  0  0  0
 17 18  2  0  0  0  0
 18 19  1  0  0  0  0
 18 20  1  0  0  0  0
 19 34  1  0  0  0  0
 20 21  1  0  0  0  0
 21 22  1  0  0  0  0
 21 35  1  0  0  0  0
 21 36  1  0  0  0  0
 23 24  1  0  0  0  0
 23 37  1  0  0  0  0
 24 38  1  0  0  0  0
M  END
$$$$
