ZINC000000051965      none
 OpenBabel11202420153D

 21 22  0  0  0  0  0  0  0  0999 V2000
   32.4306   33.8337   58.2135 O   0  0  0  0  0  0  0  0  0  0  0  0
   33.0616   34.3830   57.3314 C   0  0  0  0  0  0  0  0  0  0  0  0
   33.2377   35.7189   57.3604 N   0  0  0  0  0  0  0  0  0  0  0  0
   32.6979   36.4685   58.3987 C   0  0  0  0  0  0  0  0  0  0  0  0
   32.0053   36.0072   59.4000 N   0  0  0  0  0  0  0  0  0  0  0  0
   31.5914   36.8354   60.2560 N   0  0  0  0  0  0  0  0  0  0  0  0
   31.8823   38.0841   60.0816 C   0  0  0  0  0  0  0  0  0  0  0  0
   32.8344   38.2165   58.6016 S   0  0  0  0  0  0  0  0  0  0  0  0
   33.6354   33.5860   56.2276 C   0  0  0  0  0  0  0  0  0  0  0  0
   34.9242   33.0601   56.3389 C   0  0  0  0  0  0  0  0  0  0  0  0
   35.4562   32.3216   55.3031 C   0  0  0  0  0  0  0  0  0  0  0  0
   34.7107   32.0914   54.1586 C   0  0  0  0  0  0  0  0  0  0  0  0
   35.3849   31.1551   52.8616 Cl  0  0  0  0  0  0  0  0  0  0  0  0
   33.4317   32.6105   54.0423 C   0  0  0  0  0  0  0  0  0  0  0  0
   32.8909   33.3554   55.0689 C   0  0  0  0  0  0  0  0  0  0  0  0
   33.7412   36.1571   56.6566 H   0  0  0  0  0  0  0  0  0  0  0  0
   31.5968   38.9000   60.7291 H   0  0  0  0  0  0  0  0  0  0  0  0
   35.5046   33.2352   57.2327 H   0  0  0  0  0  0  0  0  0  0  0  0
   36.4546   31.9182   55.3862 H   0  0  0  0  0  0  0  0  0  0  0  0
   32.8571   32.4317   53.1455 H   0  0  0  0  0  0  0  0  0  0  0  0
   31.8939   33.7599   54.9770 H   0  0  0  0  0  0  0  0  0  0  0  0
  1  2  2  0  0  0  0
  2  3  1  0  0  0  0
  2  9  1  0  0  0  0
  3  4  1  0  0  0  0
  3 16  1  0  0  0  0
  4  8  1  0  0  0  0
  4  5  2  0  0  0  0
  5  6  1  0  0  0  0
  6  7  2  0  0  0  0
  7  8  1  0  0  0  0
  7 17  1  0  0  0  0
  9 15  2  0  0  0  0
  9 10  1  0  0  0  0
 10 11  2  0  0  0  0
 10 18  1  0  0  0  0
 11 12  1  0  0  0  0
 11 19  1  0  0  0  0
 12 13  1  0  0  0  0
 12 14  2  0  0  0  0
 14 15  1  0  0  0  0
 14 20  1  0  0  0  0
 15 21  1  0  0  0  0
M  END
$$$$
