ZINC000000008902      none
 OpenBabel11202420153D

 22 23  0  0  0  0  0  0  0  0999 V2000
   32.6887   33.3857   60.7475 C   0  0  0  0  0  0  0  0  0  0  0  0
   31.4539   34.2770   60.6004 C   0  0  0  0  0  0  0  0  0  0  0  0
   31.8458   35.6815   60.7408 N   0  0  0  0  0  0  0  0  0  0  0  0
   31.8845   36.3774   61.8927 C   0  0  0  0  0  0  0  0  0  0  0  0
   31.5978   35.9340   62.9892 O   0  0  0  0  0  0  0  0  0  0  0  0
   32.2887   37.6380   61.6477 N   0  0  0  0  0  0  0  0  0  0  0  0
   32.3990   38.3377   62.3103 H   0  0  0  0  0  0  0  0  0  0  0  0
   32.5224   37.7660   60.2800 C   0  0  0  0  0  0  0  0  0  0  0  0
   32.9446   38.8182   59.4817 C   0  0  0  0  0  0  0  0  0  0  0  0
   33.0857   38.6346   58.1194 C   0  0  0  0  0  0  0  0  0  0  0  0
   33.6137   39.9516   57.1193 Cl  0  0  0  0  0  0  0  0  0  0  0  0
   32.8130   37.4005   57.5491 C   0  0  0  0  0  0  0  0  0  0  0  0
   33.0010   37.1782   55.8376 Cl  0  0  0  0  0  0  0  0  0  0  0  0
   32.3858   36.3488   58.3371 C   0  0  0  0  0  0  0  0  0  0  0  0
   32.2415   36.5253   59.7049 C   0  0  0  0  0  0  0  0  0  0  0  0
   33.4141   33.6395   59.9746 H   0  0  0  0  0  0  0  0  0  0  0  0
   33.1346   33.5420   61.7298 H   0  0  0  0  0  0  0  0  0  0  0  0
   32.3970   32.3406   60.6430 H   0  0  0  0  0  0  0  0  0  0  0  0
   30.7284   34.0232   61.3732 H   0  0  0  0  0  0  0  0  0  0  0  0
   31.0079   34.1207   59.6180 H   0  0  0  0  0  0  0  0  0  0  0  0
   33.1630   39.7791   59.9237 H   0  0  0  0  0  0  0  0  0  0  0  0
   32.1693   35.3901   57.8893 H   0  0  0  0  0  0  0  0  0  0  0  0
  1  2  1  0  0  0  0
  1 16  1  0  0  0  0
  1 17  1  0  0  0  0
  1 18  1  0  0  0  0
  2  3  1  0  0  0  0
  2 19  1  0  0  0  0
  2 20  1  0  0  0  0
  3 15  1  0  0  0  0
  3  4  1  0  0  0  0
  4  5  2  0  0  0  0
  4  6  1  0  0  0  0
  6  7  1  0  0  0  0
  6  8  1  0  0  0  0
  8 15  2  0  0  0  0
  8  9  1  0  0  0  0
  9 10  2  0  0  0  0
  9 21  1  0  0  0  0
 10 11  1  0  0  0  0
 10 12  1  0  0  0  0
 12 13  1  0  0  0  0
 12 14  2  0  0  0  0
 14 15  1  0  0  0  0
 14 22  1  0  0  0  0
M  END
$$$$
