ZINC000000008476      none
 OpenBabel11202420153D

 47 50  0  0  1  0  0  0  0  0999 V2000
   31.4282   36.0030   61.9315 C   0  0  0  0  0  0  0  0  0  0  0  0
   31.3412   36.3616   63.3534 N   0  3  1  0  0  0  0  0  0  0  0  0
   30.6607   35.7715   63.8078 H   0  0  0  0  0  0  0  0  0  0  0  0
   32.6531   36.1731   63.9867 C   0  0  0  0  0  0  0  0  0  0  0  0
   32.5585   36.5286   65.4720 C   0  0  0  0  0  0  0  0  0  0  0  0
   32.1241   37.9257   65.6117 N   0  0  0  0  0  0  0  0  0  0  0  0
   32.0780   38.3026   66.9527 C   0  0  0  0  0  0  0  0  0  0  0  0
   31.2471   37.6256   67.8283 C   0  0  0  0  0  0  0  0  0  0  0  0
   31.1967   37.9964   69.1673 C   0  0  0  0  0  0  0  0  0  0  0  0
   31.9961   39.0624   69.6185 C   0  0  0  0  0  0  0  0  0  0  0  0
   32.8326   39.7432   68.7303 C   0  0  0  0  0  0  0  0  0  0  0  0
   32.8737   39.3639   67.4043 C   0  0  0  0  0  0  0  0  0  0  0  0
   33.7116   40.0407   66.5086 N   0  0  0  0  0  0  0  0  0  0  0  0
   31.9302   39.4416   71.0397 C   0  0  0  0  0  0  0  0  0  0  0  0
   32.6010   40.3572   71.4841 O   0  0  0  0  0  0  0  0  0  0  0  0
   31.0247   38.6645   71.9032 C   0  0  0  0  0  0  0  0  0  0  0  0
   30.9070   38.9754   73.3314 C   0  0  0  0  0  0  0  0  0  0  0  0
   30.0723   39.7845   73.7150 O   0  0  0  0  0  0  0  0  0  0  0  0
   31.6437   38.4259   74.1400 O   0  0  0  0  0  1  0  0  0  0  0  0
   30.2827   37.6417   71.3432 C   0  0  0  0  0  0  0  0  0  0  0  0
   30.3704   37.3259   70.0462 N   0  0  0  0  0  0  0  0  0  0  0  0
   29.5538   36.2214   69.5369 C   0  0  0  0  0  0  0  0  0  0  0  0
   28.2456   36.5784   68.8284 C   0  0  0  0  0  0  0  0  0  0  0  0
   28.2141   35.9567   70.2268 C   0  0  0  0  0  0  0  0  0  0  0  0
   30.8233   38.1355   64.9607 C   0  0  0  0  0  0  0  0  0  0  0  0
   30.9322   37.7668   63.4795 C   0  0  0  0  0  0  0  0  0  0  0  0
   31.7305   34.9600   61.8376 H   0  0  0  0  0  0  0  0  0  0  0  0
   30.4548   36.1429   61.4613 H   0  0  0  0  0  0  0  0  0  0  0  0
   32.1637   36.6401   61.4404 H   0  0  0  0  0  0  0  0  0  0  0  0
   33.3857   36.8200   63.5042 H   0  0  0  0  0  0  0  0  0  0  0  0
   32.9614   35.1329   63.8809 H   0  0  0  0  0  0  0  0  0  0  0  0
   33.5353   36.4030   65.9389 H   0  0  0  0  0  0  0  0  0  0  0  0
   31.8361   35.8728   65.9580 H   0  0  0  0  0  0  0  0  0  0  0  0
   30.6375   36.8086   67.4712 H   0  0  0  0  0  0  0  0  0  0  0  0
   33.4451   40.5610   69.0802 H   0  0  0  0  0  0  0  0  0  0  0  0
   33.7406   39.7746   65.5763 H   0  0  0  0  0  0  0  0  0  0  0  0
   34.2627   40.7754   66.8207 H   0  0  0  0  0  0  0  0  0  0  0  0
   29.6147   37.0749   71.9749 H   0  0  0  0  0  0  0  0  0  0  0  0
   30.1079   35.3592   69.1659 H   0  0  0  0  0  0  0  0  0  0  0  0
   27.9924   37.6350   68.7413 H   0  0  0  0  0  0  0  0  0  0  0  0
   27.9388   35.9507   67.9917 H   0  0  0  0  0  0  0  0  0  0  0  0
   27.8867   34.9203   70.3095 H   0  0  0  0  0  0  0  0  0  0  0  0
   27.9404   36.6043   71.0597 H   0  0  0  0  0  0  0  0  0  0  0  0
   30.0720   37.5061   65.4378 H   0  0  0  0  0  0  0  0  0  0  0  0
   30.5342   39.1822   65.0546 H   0  0  0  0  0  0  0  0  0  0  0  0
   31.6737   38.4055   62.9997 H   0  0  0  0  0  0  0  0  0  0  0  0
   29.9646   37.9081   62.9978 H   0  0  0  0  0  0  0  0  0  0  0  0
  1  2  1  0  0  0  0
  1 27  1  0  0  0  0
  1 28  1  0  0  0  0
  1 29  1  0  0  0  0
  2  3  1  1  0  0  0
  2 26  1  0  0  0  0
  2  4  1  0  0  0  0
  4  5  1  0  0  0  0
  4 30  1  0  0  0  0
  4 31  1  0  0  0  0
  5  6  1  0  0  0  0
  5 32  1  0  0  0  0
  5 33  1  0  0  0  0
  6  7  1  0  0  0  0
  6 25  1  0  0  0  0
  7 12  2  0  0  0  0
  7  8  1  0  0  0  0
  8  9  2  0  0  0  0
  8 34  1  0  0  0  0
  9 21  1  0  0  0  0
  9 10  1  0  0  0  0
 10 11  2  0  0  0  0
 10 14  1  0  0  0  0
 11 12  1  0  0  0  0
 11 35  1  0  0  0  0
 12 13  1  0  0  0  0
 13 36  1  0  0  0  0
 13 37  1  0  0  0  0
 14 15  2  0  0  0  0
 14 16  1  0  0  0  0
 16 17  1  0  0  0  0
 16 20  2  0  0  0  0
 17 18  2  0  0  0  0
 17 19  1  0  0  0  0
 20 21  1  0  0  0  0
 20 38  1  0  0  0  0
 21 22  1  0  0  0  0
 22 24  1  0  0  0  0
 22 23  1  0  0  0  0
 22 39  1  0  0  0  0
 23 24  1  0  0  0  0
 23 40  1  0  0  0  0
 23 41  1  0  0  0  0
 24 42  1  0  0  0  0
 24 43  1  0  0  0  0
 25 26  1  0  0  0  0
 25 44  1  0  0  0  0
 25 45  1  0  0  0  0
 26 46  1  0  0  0  0
 26 47  1  0  0  0  0
M  CHG  1   2   1
M  END
$$$$
