ZINC000000008637      none
 OpenBabel11202420153D

 35 38  0  0  0  0  0  0  0  0999 V2000
   34.4438   37.2552   52.7472 C   0  0  0  0  0  0  0  0  0  0  0  0
   35.2199   37.1314   54.0600 C   0  0  0  0  0  0  0  0  0  0  0  0
   34.2709   36.7659   55.1721 C   0  0  0  0  0  0  0  0  0  0  0  0
   33.9013   35.3949   55.6037 C   0  0  0  0  0  0  0  0  0  0  0  0
   34.2367   34.1407   54.9080 C   0  0  0  0  0  0  0  0  0  0  0  0
   33.3739   33.6265   53.9577 C   0  0  0  0  0  0  0  0  0  0  0  0
   33.6890   32.4533   53.2998 C   0  0  0  0  0  0  0  0  0  0  0  0
   34.8666   31.7851   53.6013 C   0  0  0  0  0  0  0  0  0  0  0  0
   35.1757   30.6277   52.9594 O   0  0  0  0  0  0  0  0  0  0  0  0
   35.7281   32.3002   54.5592 C   0  0  0  0  0  0  0  0  0  0  0  0
   35.4112   33.4765   55.2102 C   0  0  0  0  0  0  0  0  0  0  0  0
   33.2212   35.5068   56.7170 C   0  0  0  0  0  0  0  0  0  0  0  0
   32.6447   34.9895   57.9666 C   0  0  0  0  0  0  0  0  0  0  0  0
   32.3418   36.0295   58.7407 C   0  0  0  0  0  0  0  0  0  0  0  0
   32.6677   37.2434   57.9802 C   0  0  0  0  0  0  0  0  0  0  0  0
   32.9092   38.4748   58.3485 C   0  0  0  0  0  0  0  0  0  0  0  0
   33.2996   39.4815   57.3329 C   0  0  0  0  0  0  0  0  0  0  0  0
   33.6620   39.0547   56.1204 C   0  0  0  0  0  0  0  0  0  0  0  0
   33.6181   37.5923   55.9372 C   0  0  0  0  0  0  0  0  0  0  0  0
   32.6794   36.8129   56.6373 N   0  0  0  0  0  0  0  0  0  0  0  0
   35.1302   37.5196   51.9429 H   0  0  0  0  0  0  0  0  0  0  0  0
   33.9642   36.3038   52.5176 H   0  0  0  0  0  0  0  0  0  0  0  0
   33.6841   38.0306   52.8461 H   0  0  0  0  0  0  0  0  0  0  0  0
   35.6996   38.0829   54.2896 H   0  0  0  0  0  0  0  0  0  0  0  0
   35.9796   36.3561   53.9611 H   0  0  0  0  0  0  0  0  0  0  0  0
   32.4551   34.1447   53.7265 H   0  0  0  0  0  0  0  0  0  0  0  0
   33.0169   32.0543   52.5545 H   0  0  0  0  0  0  0  0  0  0  0  0
   34.5163   30.3496   52.3099 H   0  0  0  0  0  0  0  0  0  0  0  0
   36.6454   31.7815   54.7960 H   0  0  0  0  0  0  0  0  0  0  0  0
   36.0815   33.8782   55.9559 H   0  0  0  0  0  0  0  0  0  0  0  0
   32.4931   33.9490   58.2131 H   0  0  0  0  0  0  0  0  0  0  0  0
   31.9339   35.9883   59.7398 H   0  0  0  0  0  0  0  0  0  0  0  0
   32.8289   38.7558   59.3883 H   0  0  0  0  0  0  0  0  0  0  0  0
   33.2907   40.5356   57.5679 H   0  0  0  0  0  0  0  0  0  0  0  0
   33.9642   39.7297   55.3334 H   0  0  0  0  0  0  0  0  0  0  0  0
  1  2  1  0  0  0  0
  1 21  1  0  0  0  0
  1 22  1  0  0  0  0
  1 23  1  0  0  0  0
  2  3  1  0  0  0  0
  2 24  1  0  0  0  0
  2 25  1  0  0  0  0
  3 19  2  0  0  0  0
  3  4  1  0  0  0  0
  4  5  1  0  0  0  0
  4 12  2  0  0  0  0
  5 11  2  0  0  0  0
  5  6  1  0  0  0  0
  6  7  2  0  0  0  0
  6 26  1  0  0  0  0
  7  8  1  0  0  0  0
  7 27  1  0  0  0  0
  8  9  1  0  0  0  0
  8 10  2  0  0  0  0
  9 28  1  0  0  0  0
 10 11  1  0  0  0  0
 10 29  1  0  0  0  0
 11 30  1  0  0  0  0
 12 20  1  0  0  0  0
 12 13  1  0  0  0  0
 13 14  2  0  0  0  0
 13 31  1  0  0  0  0
 14 15  1  0  0  0  0
 14 32  1  0  0  0  0
 15 20  1  0  0  0  0
 15 16  2  0  0  0  0
 16 17  1  0  0  0  0
 16 33  1  0  0  0  0
 17 18  2  0  0  0  0
 17 34  1  0  0  0  0
 18 19  1  0  0  0  0
 18 35  1  0  0  0  0
 19 20  1  0  0  0  0
M  END
$$$$
