ZINC000000028895      none
 OpenBabel11202420163D

 33 35  0  0  1  0  0  0  0  0999 V2000
   30.6991   38.9032   64.5179 C   0  0  0  0  0  0  0  0  0  0  0  0
   31.5982   37.8103   64.0000 C   0  0  0  0  0  0  0  0  0  0  0  0
   31.2733   37.1366   62.8004 C   0  0  0  0  0  0  0  0  0  0  0  0
   32.0518   36.1902   62.3521 N   0  0  0  0  0  0  0  0  0  0  0  0
   31.8004   35.6095   61.1022 N   0  0  0  0  0  0  0  0  0  0  0  0
   32.0738   34.3473   60.7046 C   0  0  0  0  0  0  0  0  0  0  0  0
   32.8105   33.1528   61.6851 S   0  0  0  0  0  0  0  0  0  0  0  0
   31.6870   34.1617   59.4366 N   0  0  0  0  0  0  0  0  0  0  0  0
   31.1776   35.1623   58.9165 N   0  0  0  0  0  0  0  0  0  0  0  0
   31.1776   36.2378   59.9213 C   0  0  2  0  0  0  0  0  0  0  0  0
   32.0004   37.4076   59.4465 C   0  0  0  0  0  0  0  0  0  0  0  0
   32.5635   37.5317   58.2312 C   0  0  0  0  0  0  0  0  0  0  0  0
   33.2352   38.7757   58.2161 C   0  0  0  0  0  0  0  0  0  0  0  0
   33.0492   39.3338   59.4257 C   0  0  0  0  0  0  0  0  0  0  0  0
   32.3005   38.5006   60.1668 O   0  0  0  0  0  0  0  0  0  0  0  0
   32.7180   37.4732   64.6844 C   0  0  0  0  0  0  0  0  0  0  0  0
   32.9892   38.0793   65.9862 C   0  0  0  0  0  0  0  0  0  0  0  0
   33.1243   37.4108   67.1719 C   0  0  0  0  0  0  0  0  0  0  0  0
   33.3790   38.3815   68.1561 C   0  0  0  0  0  0  0  0  0  0  0  0
   33.3798   39.5823   67.5394 C   0  0  0  0  0  0  0  0  0  0  0  0
   33.1444   39.3965   66.2304 O   0  0  0  0  0  0  0  0  0  0  0  0
   30.0094   38.4886   65.2530 H   0  0  0  0  0  0  0  0  0  0  0  0
   31.3041   39.6804   64.9851 H   0  0  0  0  0  0  0  0  0  0  0  0
   30.1337   39.3313   63.6901 H   0  0  0  0  0  0  0  0  0  0  0  0
   30.3807   37.4053   62.2549 H   0  0  0  0  0  0  0  0  0  0  0  0
   30.1587   36.5526   60.1464 H   0  0  0  0  0  0  0  0  0  0  0  0
   32.5108   36.8189   57.4216 H   0  0  0  0  0  0  0  0  0  0  0  0
   33.7940   39.1954   57.3927 H   0  0  0  0  0  0  0  0  0  0  0  0
   33.4360   40.2898   59.7465 H   0  0  0  0  0  0  0  0  0  0  0  0
   33.4103   36.7565   64.2677 H   0  0  0  0  0  0  0  0  0  0  0  0
   33.0515   36.3438   67.3224 H   0  0  0  0  0  0  0  0  0  0  0  0
   33.5400   38.2011   69.2086 H   0  0  0  0  0  0  0  0  0  0  0  0
   33.5427   40.5357   68.0198 H   0  0  0  0  0  0  0  0  0  0  0  0
  1  2  1  0  0  0  0
  1 22  1  0  0  0  0
  1 23  1  0  0  0  0
  1 24  1  0  0  0  0
  2  3  1  0  0  0  0
  2 16  2  0  0  0  0
  3  4  2  0  0  0  0
  3 25  1  0  0  0  0
  4  5  1  0  0  0  0
  5 10  1  0  0  0  0
  5  6  1  0  0  0  0
  6  7  2  0  0  0  0
  6  8  1  0  0  0  0
  8  9  2  0  0  0  0
  9 10  1  0  0  0  0
 10 11  1  0  0  0  0
 10 26  1  1  0  0  0
 11 15  1  0  0  0  0
 11 12  2  0  0  0  0
 12 13  1  0  0  0  0
 12 27  1  0  0  0  0
 13 14  2  0  0  0  0
 13 28  1  0  0  0  0
 14 15  1  0  0  0  0
 14 29  1  0  0  0  0
 16 17  1  0  0  0  0
 16 30  1  0  0  0  0
 17 21  1  0  0  0  0
 17 18  2  0  0  0  0
 18 19  1  0  0  0  0
 18 31  1  0  0  0  0
 19 20  2  0  0  0  0
 19 32  1  0  0  0  0
 20 21  1  0  0  0  0
 20 33  1  0  0  0  0
M  END
$$$$
