ZINC000000029360      none
 OpenBabel11202420163D

 35 36  0  0  0  0  0  0  0  0999 V2000
   28.9878   36.5700   62.0329 C   0  0  0  0  0  0  0  0  0  0  0  0
   29.8523   37.8304   62.1035 C   0  0  0  0  0  0  0  0  0  0  0  0
   31.0211   37.5740   62.9486 N   0  0  0  0  0  0  0  0  0  0  0  0
   32.1571   37.0982   62.4014 C   0  0  0  0  0  0  0  0  0  0  0  0
   33.1281   36.8853   63.1036 O   0  0  0  0  0  0  0  0  0  0  0  0
   32.2232   36.8371   60.9605 C   0  0  0  0  0  0  0  0  0  0  0  0
   32.6179   37.7353   60.0094 C   0  0  0  0  0  0  0  0  0  0  0  0
   32.5859   37.2252   58.7332 C   0  0  0  0  0  0  0  0  0  0  0  0
   32.1795   35.9536   58.6403 C   0  0  0  0  0  0  0  0  0  0  0  0
   31.8147   35.3154   60.1799 S   0  0  0  0  0  0  0  0  0  0  0  0
   30.9570   37.8407   64.3878 C   0  0  0  0  0  0  0  0  0  0  0  0
   29.8527   36.9881   65.0157 C   0  0  0  0  0  0  0  0  0  0  0  0
   29.7857   37.2665   66.5186 C   0  0  0  0  0  0  0  0  0  0  0  0
   29.4800   38.7478   66.7498 C   0  0  0  0  0  0  0  0  0  0  0  0
   30.5843   39.6004   66.1217 C   0  0  0  0  0  0  0  0  0  0  0  0
   30.6514   39.3219   64.6190 C   0  0  0  0  0  0  0  0  0  0  0  0
   28.1181   36.7606   61.4041 H   0  0  0  0  0  0  0  0  0  0  0  0
   29.5708   35.7527   61.6085 H   0  0  0  0  0  0  0  0  0  0  0  0
   28.6583   36.2988   63.0359 H   0  0  0  0  0  0  0  0  0  0  0  0
   29.2692   38.6477   62.5278 H   0  0  0  0  0  0  0  0  0  0  0  0
   30.1817   38.1016   61.1005 H   0  0  0  0  0  0  0  0  0  0  0  0
   32.9241   38.7456   60.2375 H   0  0  0  0  0  0  0  0  0  0  0  0
   32.8684   37.8079   57.8689 H   0  0  0  0  0  0  0  0  0  0  0  0
   32.0973   35.4035   57.7145 H   0  0  0  0  0  0  0  0  0  0  0  0
   31.9138   37.5914   64.8464 H   0  0  0  0  0  0  0  0  0  0  0  0
   28.8959   37.2375   64.5569 H   0  0  0  0  0  0  0  0  0  0  0  0
   30.0704   35.9328   64.8510 H   0  0  0  0  0  0  0  0  0  0  0  0
   30.7425   37.0170   66.9773 H   0  0  0  0  0  0  0  0  0  0  0  0
   28.9990   36.6591   66.9660 H   0  0  0  0  0  0  0  0  0  0  0  0
   29.4323   38.9461   67.8205 H   0  0  0  0  0  0  0  0  0  0  0  0
   28.5233   38.9972   66.2910 H   0  0  0  0  0  0  0  0  0  0  0  0
   31.5412   39.3510   66.5806 H   0  0  0  0  0  0  0  0  0  0  0  0
   30.3666   40.6557   66.2865 H   0  0  0  0  0  0  0  0  0  0  0  0
   31.4380   39.9294   64.1715 H   0  0  0  0  0  0  0  0  0  0  0  0
   29.6945   39.5714   64.1602 H   0  0  0  0  0  0  0  0  0  0  0  0
  1  2  1  0  0  0  0
  1 17  1  0  0  0  0
  1 18  1  0  0  0  0
  1 19  1  0  0  0  0
  2  3  1  0  0  0  0
  2 20  1  0  0  0  0
  2 21  1  0  0  0  0
  3  4  1  0  0  0  0
  3 11  1  0  0  0  0
  4  5  2  0  0  0  0
  4  6  1  0  0  0  0
  6 10  1  0  0  0  0
  6  7  2  0  0  0  0
  7  8  1  0  0  0  0
  7 22  1  0  0  0  0
  8  9  2  0  0  0  0
  8 23  1  0  0  0  0
  9 10  1  0  0  0  0
  9 24  1  0  0  0  0
 11 16  1  0  0  0  0
 11 12  1  0  0  0  0
 11 25  1  0  0  0  0
 12 13  1  0  0  0  0
 12 26  1  0  0  0  0
 12 27  1  0  0  0  0
 13 14  1  0  0  0  0
 13 28  1  0  0  0  0
 13 29  1  0  0  0  0
 14 15  1  0  0  0  0
 14 30  1  0  0  0  0
 14 31  1  0  0  0  0
 15 16  1  0  0  0  0
 15 32  1  0  0  0  0
 15 33  1  0  0  0  0
 16 34  1  0  0  0  0
 16 35  1  0  0  0  0
M  END
$$$$
