ZINC000000031738      none
 OpenBabel11202420163D

 43 43  0  0  1  0  0  0  0  0999 V2000
   34.0728   38.4467   55.5554 C   0  0  0  0  0  0  0  0  0  0  0  0
   33.4690   39.0593   56.8207 C   0  0  0  0  0  0  0  0  0  0  0  0
   33.1964   38.0082   57.7847 O   0  0  0  0  0  0  0  0  0  0  0  0
   32.6607   38.3811   58.9576 C   0  0  0  0  0  0  0  0  0  0  0  0
   32.4275   39.5472   59.1717 O   0  0  0  0  0  0  0  0  0  0  0  0
   32.3562   37.3462   60.0099 C   0  0  2  0  0  0  0  0  0  0  0  0
   33.2249   37.2175   60.6556 H   0  0  0  0  0  0  0  0  0  0  0  0
   32.0200   36.0146   59.3345 C   0  0  0  0  0  0  0  0  0  0  0  0
   31.7428   34.9546   60.4029 C   0  0  0  0  0  0  0  0  0  0  0  0
   30.5385   35.3871   61.2452 C   0  0  0  0  0  0  0  0  0  0  0  0
   30.7943   36.7311   61.7809 N   0  0  0  0  0  0  0  0  0  0  0  0
   30.6965   36.9734   63.1030 C   0  0  0  0  0  0  0  0  0  0  0  0
   30.3947   36.0777   63.8631 O   0  0  0  0  0  0  0  0  0  0  0  0
   30.9621   38.3573   63.6372 C   0  0  0  0  0  0  0  0  0  0  0  0
   30.7842   38.3603   65.1568 C   0  0  0  0  0  0  0  0  0  0  0  0
   31.7680   37.3727   65.7872 C   0  0  0  0  0  0  0  0  0  0  0  0
   31.0540   39.7653   65.6992 C   0  0  0  0  0  0  0  0  0  0  0  0
   29.3529   37.9459   65.5036 C   0  0  0  0  0  0  0  0  0  0  0  0
   31.1595   37.8062   60.8483 C   0  0  0  0  0  0  0  0  0  0  0  0
   34.2776   39.2356   54.8317 H   0  0  0  0  0  0  0  0  0  0  0  0
   35.0015   37.9346   55.8070 H   0  0  0  0  0  0  0  0  0  0  0  0
   33.3695   37.7333   55.1258 H   0  0  0  0  0  0  0  0  0  0  0  0
   32.5404   39.5714   56.5689 H   0  0  0  0  0  0  0  0  0  0  0  0
   34.1725   39.7726   57.2503 H   0  0  0  0  0  0  0  0  0  0  0  0
   31.1369   36.1382   58.7077 H   0  0  0  0  0  0  0  0  0  0  0  0
   32.8612   35.6976   58.7181 H   0  0  0  0  0  0  0  0  0  0  0  0
   31.5262   34.0008   59.9215 H   0  0  0  0  0  0  0  0  0  0  0  0
   32.6170   34.8478   61.0450 H   0  0  0  0  0  0  0  0  0  0  0  0
   29.6445   35.4062   60.6220 H   0  0  0  0  0  0  0  0  0  0  0  0
   30.3962   34.6850   62.0668 H   0  0  0  0  0  0  0  0  0  0  0  0
   31.9818   38.6526   63.3902 H   0  0  0  0  0  0  0  0  0  0  0  0
   30.2610   39.0609   63.1879 H   0  0  0  0  0  0  0  0  0  0  0  0
   32.7878   37.6678   65.5403 H   0  0  0  0  0  0  0  0  0  0  0  0
   31.6414   37.3748   66.8700 H   0  0  0  0  0  0  0  0  0  0  0  0
   31.5759   36.3716   65.4011 H   0  0  0  0  0  0  0  0  0  0  0  0
   30.3531   40.4689   65.2499 H   0  0  0  0  0  0  0  0  0  0  0  0
   30.9273   39.7674   66.7818 H   0  0  0  0  0  0  0  0  0  0  0  0
   32.0738   40.0605   65.4521 H   0  0  0  0  0  0  0  0  0  0  0  0
   29.1607   36.9450   65.1173 H   0  0  0  0  0  0  0  0  0  0  0  0
   29.2260   37.9480   66.5862 H   0  0  0  0  0  0  0  0  0  0  0  0
   28.6519   38.6495   65.0544 H   0  0  0  0  0  0  0  0  0  0  0  0
   31.4287   38.7013   61.4091 H   0  0  0  0  0  0  0  0  0  0  0  0
   30.3160   38.0230   60.1929 H   0  0  0  0  0  0  0  0  0  0  0  0
  1  2  1  0  0  0  0
  1 20  1  0  0  0  0
  1 21  1  0  0  0  0
  1 22  1  0  0  0  0
  2  3  1  0  0  0  0
  2 23  1  0  0  0  0
  2 24  1  0  0  0  0
  3  4  1  0  0  0  0
  4  5  2  0  0  0  0
  4  6  1  0  0  0  0
  6  7  1  1  0  0  0
  6 19  1  0  0  0  0
  6  8  1  0  0  0  0
  8  9  1  0  0  0  0
  8 25  1  0  0  0  0
  8 26  1  0  0  0  0
  9 10  1  0  0  0  0
  9 27  1  0  0  0  0
  9 28  1  0  0  0  0
 10 11  1  0  0  0  0
 10 29  1  0  0  0  0
 10 30  1  0  0  0  0
 11 12  1  0  0  0  0
 11 19  1  0  0  0  0
 12 13  2  0  0  0  0
 12 14  1  0  0  0  0
 14 15  1  0  0  0  0
 14 31  1  0  0  0  0
 14 32  1  0  0  0  0
 15 16  1  0  0  0  0
 15 17  1  0  0  0  0
 15 18  1  0  0  0  0
 16 33  1  0  0  0  0
 16 34  1  0  0  0  0
 16 35  1  0  0  0  0
 17 36  1  0  0  0  0
 17 37  1  0  0  0  0
 17 38  1  0  0  0  0
 18 39  1  0  0  0  0
 18 40  1  0  0  0  0
 18 41  1  0  0  0  0
 19 42  1  0  0  0  0
 19 43  1  0  0  0  0
M  END
$$$$
