ZINC000000031856      none
 OpenBabel11202420163D

 38 40  0  0  1  0  0  0  0  0999 V2000
   29.4640   40.3691   68.1083 C   0  0  0  0  0  0  0  0  0  0  0  0
   29.5964   39.5741   66.8076 C   0  0  0  0  0  0  0  0  0  0  0  0
   30.0907   38.2650   67.0978 O   0  0  0  0  0  0  0  0  0  0  0  0
   31.2697   37.9087   66.5217 C   0  0  0  0  0  0  0  0  0  0  0  0
   32.4183   38.6388   66.7812 C   0  0  0  0  0  0  0  0  0  0  0  0
   33.6147   38.2790   66.1905 C   0  0  0  0  0  0  0  0  0  0  0  0
   33.6710   37.1873   65.3430 C   0  0  0  0  0  0  0  0  0  0  0  0
   32.5313   36.4502   65.0836 C   0  0  0  0  0  0  0  0  0  0  0  0
   31.3268   36.8052   65.6734 C   0  0  0  0  0  0  0  0  0  0  0  0
   30.1698   36.0592   65.4122 N   0  0  0  0  0  0  0  0  0  0  0  0
   29.8373   35.0234   66.1732 C   0  0  0  0  0  0  0  0  0  0  0  0
   30.5117   34.6854   67.1230 O   0  0  0  0  0  0  0  0  0  0  0  0
   28.5697   34.2861   65.7905 C   0  0  0  0  0  0  0  0  0  0  0  0
   28.2721   34.8831   64.0742 S   0  0  0  0  0  0  0  0  0  0  0  0
   29.2873   36.3993   64.2865 C   0  0  2  0  0  0  0  0  0  0  0  0
   28.6571   37.2530   64.5356 H   0  0  0  0  0  0  0  0  0  0  0  0
   30.0927   36.6791   63.0440 C   0  0  0  0  0  0  0  0  0  0  0  0
   30.5244   37.9646   62.7754 C   0  0  0  0  0  0  0  0  0  0  0  0
   31.2628   38.2220   61.6357 C   0  0  0  0  0  0  0  0  0  0  0  0
   31.5653   37.1937   60.7610 C   0  0  0  0  0  0  0  0  0  0  0  0
   32.4861   37.5176   59.3253 Cl  0  0  0  0  0  0  0  0  0  0  0  0
   31.1386   35.9062   61.0336 C   0  0  0  0  0  0  0  0  0  0  0  0
   30.3999   35.6502   62.1734 C   0  0  0  0  0  0  0  0  0  0  0  0
   28.8383   39.8171   68.8094 H   0  0  0  0  0  0  0  0  0  0  0  0
   30.4518   40.5201   68.5438 H   0  0  0  0  0  0  0  0  0  0  0  0
   29.0079   41.3364   67.8979 H   0  0  0  0  0  0  0  0  0  0  0  0
   30.2896   40.0841   66.1389 H   0  0  0  0  0  0  0  0  0  0  0  0
   28.6203   39.4959   66.3288 H   0  0  0  0  0  0  0  0  0  0  0  0
   32.3778   39.4917   67.4425 H   0  0  0  0  0  0  0  0  0  0  0  0
   34.5081   38.8521   66.3896 H   0  0  0  0  0  0  0  0  0  0  0  0
   34.6081   36.9100   64.8832 H   0  0  0  0  0  0  0  0  0  0  0  0
   32.5782   35.5976   64.4223 H   0  0  0  0  0  0  0  0  0  0  0  0
   28.7283   33.2079   65.8057 H   0  0  0  0  0  0  0  0  0  0  0  0
   27.7454   34.5645   66.4473 H   0  0  0  0  0  0  0  0  0  0  0  0
   30.2844   38.7680   63.4561 H   0  0  0  0  0  0  0  0  0  0  0  0
   31.5999   39.2264   61.4259 H   0  0  0  0  0  0  0  0  0  0  0  0
   31.3785   35.1022   60.3536 H   0  0  0  0  0  0  0  0  0  0  0  0
   30.0624   34.6460   62.3838 H   0  0  0  0  0  0  0  0  0  0  0  0
  1  2  1  0  0  0  0
  1 24  1  0  0  0  0
  1 25  1  0  0  0  0
  1 26  1  0  0  0  0
  2  3  1  0  0  0  0
  2 27  1  0  0  0  0
  2 28  1  0  0  0  0
  3  4  1  0  0  0  0
  4  9  2  0  0  0  0
  4  5  1  0  0  0  0
  5  6  2  0  0  0  0
  5 29  1  0  0  0  0
  6  7  1  0  0  0  0
  6 30  1  0  0  0  0
  7  8  2  0  0  0  0
  7 31  1  0  0  0  0
  8  9  1  0  0  0  0
  8 32  1  0  0  0  0
  9 10  1  0  0  0  0
 10 15  1  0  0  0  0
 10 11  1  0  0  0  0
 11 12  2  0  0  0  0
 11 13  1  0  0  0  0
 13 14  1  0  0  0  0
 13 33  1  0  0  0  0
 13 34  1  0  0  0  0
 14 15  1  0  0  0  0
 15 16  1  1  0  0  0
 15 17  1  0  0  0  0
 17 23  2  0  0  0  0
 17 18  1  0  0  0  0
 18 19  2  0  0  0  0
 18 35  1  0  0  0  0
 19 20  1  0  0  0  0
 19 36  1  0  0  0  0
 20 21  1  0  0  0  0
 20 22  2  0  0  0  0
 22 23  1  0  0  0  0
 22 37  1  0  0  0  0
 23 38  1  0  0  0  0
M  END
$$$$
