ZINC000000019388      none
 OpenBabel11202420153D

 22 23  0  0  1  0  0  0  0  0999 V2000
   35.3077   39.4134   52.5929 C   0  0  0  0  0  0  0  0  0  0  0  0
   34.7669   39.0052   53.9390 C   0  0  0  0  0  0  0  0  0  0  0  0
   34.6357   39.8512   54.9408 N   0  0  0  0  0  0  0  0  0  0  0  0
   34.1607   39.3849   56.0462 C   0  0  0  0  0  0  0  0  0  0  0  0
   33.8134   37.7188   55.8821 S   0  0  0  0  0  0  0  0  0  0  0  0
   34.3811   37.7558   54.2145 C   0  0  0  0  0  0  0  0  0  0  0  0
   34.4187   36.5865   53.2646 C   0  0  2  0  0  0  0  0  0  0  0  0
   35.4453   36.4140   52.9412 H   0  0  0  0  0  0  0  0  0  0  0  0
   33.6022   36.8705   52.1268 O   0  0  0  0  0  0  0  0  0  0  0  0
   33.8981   35.3560   53.9617 C   0  0  0  0  0  0  0  0  0  0  0  0
   32.6224   34.9665   53.9839 C   0  0  0  0  0  0  0  0  0  0  0  0
   32.3817   33.7973   54.6847 C   0  0  0  0  0  0  0  0  0  0  0  0
   33.4618   33.2372   55.2315 C   0  0  0  0  0  0  0  0  0  0  0  0
   34.8806   34.2095   54.8640 S   0  0  0  0  0  0  0  0  0  0  0  0
   34.4859   39.7365   51.9539 H   0  0  0  0  0  0  0  0  0  0  0  0
   36.0143   40.2338   52.7187 H   0  0  0  0  0  0  0  0  0  0  0  0
   35.8141   38.5651   52.1323 H   0  0  0  0  0  0  0  0  0  0  0  0
   34.0012   39.9641   56.9436 H   0  0  0  0  0  0  0  0  0  0  0  0
   32.6735   37.0349   52.3402 H   0  0  0  0  0  0  0  0  0  0  0  0
   31.8371   35.5214   53.4921 H   0  0  0  0  0  0  0  0  0  0  0  0
   31.3942   33.3707   54.7810 H   0  0  0  0  0  0  0  0  0  0  0  0
   33.4647   32.3257   55.8107 H   0  0  0  0  0  0  0  0  0  0  0  0
  1  2  1  0  0  0  0
  1 15  1  0  0  0  0
  1 16  1  0  0  0  0
  1 17  1  0  0  0  0
  2  6  2  0  0  0  0
  2  3  1  0  0  0  0
  3  4  2  0  0  0  0
  4  5  1  0  0  0  0
  4 18  1  0  0  0  0
  5  6  1  0  0  0  0
  6  7  1  0  0  0  0
  7  8  1  6  0  0  0
  7  9  1  0  0  0  0
  7 10  1  0  0  0  0
  9 19  1  0  0  0  0
 10 14  1  0  0  0  0
 10 11  2  0  0  0  0
 11 12  1  0  0  0  0
 11 20  1  0  0  0  0
 12 13  2  0  0  0  0
 12 21  1  0  0  0  0
 13 14  1  0  0  0  0
 13 22  1  0  0  0  0
M  END
$$$$
