ZINC000000035931      none
 OpenBabel11202420153D

 45 47  0  0  0  0  0  0  0  0999 V2000
   28.1239   31.9922   65.5755 C   0  0  0  0  0  0  0  0  0  0  0  0
   29.0301   32.6749   64.5492 C   0  0  0  0  0  0  0  0  0  0  0  0
   28.5791   34.0133   64.3311 O   0  0  0  0  0  0  0  0  0  0  0  0
   29.1032   34.9776   65.1291 C   0  0  0  0  0  0  0  0  0  0  0  0
   30.2726   35.6572   64.7431 C   0  0  0  0  0  0  0  0  0  0  0  0
   30.9314   35.3291   63.4801 C   0  0  0  0  0  0  0  0  0  0  0  0
   31.0870   36.3016   62.5078 C   0  0  0  0  0  0  0  0  0  0  0  0
   31.8842   36.2164   61.2723 C   0  0  0  0  0  0  0  0  0  0  0  0
   32.5485   35.2683   60.8918 O   0  0  0  0  0  0  0  0  0  0  0  0
   31.7293   37.4019   60.6484 N   0  0  0  0  0  0  0  0  0  0  0  0
   32.3217   37.7491   59.4277 C   0  0  0  0  0  0  0  0  0  0  0  0
   32.6350   39.0750   59.1586 C   0  0  0  0  0  0  0  0  0  0  0  0
   33.2240   39.4134   57.9561 C   0  0  0  0  0  0  0  0  0  0  0  0
   33.4918   38.4350   57.0161 C   0  0  0  0  0  0  0  0  0  0  0  0
   33.1761   37.1146   57.2789 C   0  0  0  0  0  0  0  0  0  0  0  0
   32.5918   36.7690   58.4816 C   0  0  0  0  0  0  0  0  0  0  0  0
   30.8942   38.2318   61.3955 N   0  0  0  0  0  0  0  0  0  0  0  0
   30.4875   37.6442   62.4789 C   0  0  0  0  0  0  0  0  0  0  0  0
   29.5706   38.2325   63.5202 C   0  0  0  0  0  0  0  0  0  0  0  0
   30.8028   36.6521   65.5791 C   0  0  0  0  0  0  0  0  0  0  0  0
   30.1781   36.9559   66.7668 C   0  0  0  0  0  0  0  0  0  0  0  0
   29.0252   36.2852   67.1451 C   0  0  0  0  0  0  0  0  0  0  0  0
   28.4843   35.3038   66.3307 C   0  0  0  0  0  0  0  0  0  0  0  0
   27.3501   34.6557   66.7090 O   0  0  0  0  0  0  0  0  0  0  0  0
   26.7674   35.0415   67.9555 C   0  0  0  0  0  0  0  0  0  0  0  0
   28.4677   30.9713   65.7418 H   0  0  0  0  0  0  0  0  0  0  0  0
   28.1579   32.5446   66.5145 H   0  0  0  0  0  0  0  0  0  0  0  0
   27.1003   31.9744   65.2014 H   0  0  0  0  0  0  0  0  0  0  0  0
   28.9960   32.1226   63.6100 H   0  0  0  0  0  0  0  0  0  0  0  0
   30.0537   32.6927   64.9232 H   0  0  0  0  0  0  0  0  0  0  0  0
   31.2967   34.3279   63.3056 H   0  0  0  0  0  0  0  0  0  0  0  0
   32.4221   39.8400   59.8904 H   0  0  0  0  0  0  0  0  0  0  0  0
   33.4713   40.4438   57.7477 H   0  0  0  0  0  0  0  0  0  0  0  0
   33.9486   38.7027   56.0748 H   0  0  0  0  0  0  0  0  0  0  0  0
   33.3865   36.3529   56.5428 H   0  0  0  0  0  0  0  0  0  0  0  0
   32.3456   35.7375   58.6863 H   0  0  0  0  0  0  0  0  0  0  0  0
   30.1634   38.7409   64.2805 H   0  0  0  0  0  0  0  0  0  0  0  0
   28.8955   38.9463   63.0483 H   0  0  0  0  0  0  0  0  0  0  0  0
   28.9899   37.4356   63.9848 H   0  0  0  0  0  0  0  0  0  0  0  0
   31.7000   37.1792   65.2902 H   0  0  0  0  0  0  0  0  0  0  0  0
   30.5881   37.7221   67.4081 H   0  0  0  0  0  0  0  0  0  0  0  0
   28.5433   36.5321   68.0796 H   0  0  0  0  0  0  0  0  0  0  0  0
   27.4837   34.8718   68.7595 H   0  0  0  0  0  0  0  0  0  0  0  0
   26.5032   36.0984   67.9213 H   0  0  0  0  0  0  0  0  0  0  0  0
   25.8710   34.4485   68.1366 H   0  0  0  0  0  0  0  0  0  0  0  0
  1  2  1  0  0  0  0
  1 26  1  0  0  0  0
  1 27  1  0  0  0  0
  1 28  1  0  0  0  0
  2  3  1  0  0  0  0
  2 29  1  0  0  0  0
  2 30  1  0  0  0  0
  3  4  1  0  0  0  0
  4 23  2  0  0  0  0
  4  5  1  0  0  0  0
  5  6  1  0  0  0  0
  5 20  2  0  0  0  0
  6  7  2  0  0  0  0
  6 31  1  0  0  0  0
  7 18  1  0  0  0  0
  7  8  1  0  0  0  0
  8  9  2  0  0  0  0
  8 10  1  0  0  0  0
 10 11  1  0  0  0  0
 10 17  1  0  0  0  0
 11 16  2  0  0  0  0
 11 12  1  0  0  0  0
 12 13  2  0  0  0  0
 12 32  1  0  0  0  0
 13 14  1  0  0  0  0
 13 33  1  0  0  0  0
 14 15  2  0  0  0  0
 14 34  1  0  0  0  0
 15 16  1  0  0  0  0
 15 35  1  0  0  0  0
 16 36  1  0  0  0  0
 17 18  2  0  0  0  0
 18 19  1  0  0  0  0
 19 37  1  0  0  0  0
 19 38  1  0  0  0  0
 19 39  1  0  0  0  0
 20 21  1  0  0  0  0
 20 40  1  0  0  0  0
 21 22  2  0  0  0  0
 21 41  1  0  0  0  0
 22 23  1  0  0  0  0
 22 42  1  0  0  0  0
 23 24  1  0  0  0  0
 24 25  1  0  0  0  0
 25 43  1  0  0  0  0
 25 44  1  0  0  0  0
 25 45  1  0  0  0  0
M  END
$$$$
