ZINC000000037049      none
 OpenBabel11202420153D

 25 26  0  0  0  0  0  0  0  0999 V2000
   34.4993   40.3938   55.1236 N   0  0  0  0  0  0  0  0  0  0  0  0
   34.0620   39.6270   55.8387 C   0  0  0  0  0  0  0  0  0  0  0  0
   33.5108   38.6605   56.7402 C   0  0  0  0  0  0  0  0  0  0  0  0
   33.7200   37.2975   56.5207 C   0  0  0  0  0  0  0  0  0  0  0  0
   33.1856   36.3717   57.3928 C   0  0  0  0  0  0  0  0  0  0  0  0
   32.4436   36.7912   58.4827 C   0  0  0  0  0  0  0  0  0  0  0  0
   31.8623   35.7740   59.4305 C   0  0  0  0  0  0  0  0  0  0  0  0
   31.1256   36.4621   60.4936 N   0  0  0  0  0  0  0  0  0  0  0  0
   29.8160   36.7912   60.4772 C   0  0  0  0  0  0  0  0  0  0  0  0
   29.5217   37.3923   61.5975 N   0  0  0  0  0  0  0  0  0  0  0  0
   30.6216   37.4676   62.3613 C   0  0  0  0  0  0  0  0  0  0  0  0
   30.7057   38.0773   63.7076 N   0  0  0  0  0  0  0  0  0  0  0  0
   31.7646   38.0806   64.3095 O   0  0  0  0  0  0  0  0  0  0  0  0
   29.7161   38.5755   64.2135 O   0  0  0  0  0  0  0  0  0  0  0  0
   31.6348   36.8860   61.6913 C   0  0  0  0  0  0  0  0  0  0  0  0
   32.2281   38.1401   58.7032 C   0  0  0  0  0  0  0  0  0  0  0  0
   32.7614   39.0767   57.8423 C   0  0  0  0  0  0  0  0  0  0  0  0
   34.2984   36.9687   55.6699 H   0  0  0  0  0  0  0  0  0  0  0  0
   33.3467   35.3172   57.2243 H   0  0  0  0  0  0  0  0  0  0  0  0
   31.1848   35.1158   58.8863 H   0  0  0  0  0  0  0  0  0  0  0  0
   32.6673   35.1845   59.8693 H   0  0  0  0  0  0  0  0  0  0  0  0
   29.1265   36.5904   59.6706 H   0  0  0  0  0  0  0  0  0  0  0  0
   32.6537   36.7774   62.0324 H   0  0  0  0  0  0  0  0  0  0  0  0
   31.6442   38.4604   59.5533 H   0  0  0  0  0  0  0  0  0  0  0  0
   32.5959   40.1294   58.0179 H   0  0  0  0  0  0  0  0  0  0  0  0
  1  2  3  0  0  0  0
  2  3  1  0  0  0  0
  3 17  2  0  0  0  0
  3  4  1  0  0  0  0
  4  5  2  0  0  0  0
  4 18  1  0  0  0  0
  5  6  1  0  0  0  0
  5 19  1  0  0  0  0
  6  7  1  0  0  0  0
  6 16  2  0  0  0  0
  7  8  1  0  0  0  0
  7 20  1  0  0  0  0
  7 21  1  0  0  0  0
  8 15  1  0  0  0  0
  8  9  1  0  0  0  0
  9 10  2  0  0  0  0
  9 22  1  0  0  0  0
 10 11  1  0  0  0  0
 11 12  1  0  0  0  0
 11 15  2  0  0  0  0
 12 13  2  0  0  0  0
 12 14  2  0  0  0  0
 15 23  1  0  0  0  0
 16 17  1  0  0  0  0
 16 24  1  0  0  0  0
 17 25  1  0  0  0  0
M  END
$$$$
