ZINC000000044368      none
 OpenBabel11202420153D

 41 44  0  0  1  0  0  0  0  0999 V2000
   30.7529   36.7312   60.7949 C   0  0  0  0  0  0  0  0  0  0  0  0
   32.0127   35.8890   60.5837 C   0  0  2  0  0  0  0  0  0  0  0  0
   32.8037   36.2344   61.2493 H   0  0  0  0  0  0  0  0  0  0  0  0
   32.4652   35.9977   59.1511 C   0  0  0  0  0  0  0  0  0  0  0  0
   32.8454   37.0353   58.4180 N   0  0  0  0  0  0  0  0  0  0  0  0
   33.2071   36.8775   57.1534 C   0  0  0  0  0  0  0  0  0  0  0  0
   33.5972   37.9851   56.4210 N   0  0  0  0  0  0  0  0  0  0  0  0
   33.2047   35.6876   56.5714 N   0  0  0  0  0  0  0  0  0  0  0  0
   32.8348   34.6045   57.2482 C   0  0  0  0  0  0  0  0  0  0  0  0
   32.8329   33.3602   56.6395 N   0  0  0  0  0  0  0  0  0  0  0  0
   32.4489   34.7425   58.5828 C   0  0  0  0  0  0  0  0  0  0  0  0
   31.9913   33.7436   59.6111 C   0  0  0  0  0  0  0  0  0  0  0  0
   31.7178   34.4772   60.8521 N   0  0  0  0  0  0  0  0  0  0  0  0
   31.2849   33.9538   62.0163 C   0  0  0  0  0  0  0  0  0  0  0  0
   31.0828   32.7586   62.1075 O   0  0  0  0  0  0  0  0  0  0  0  0
   31.0559   34.8330   63.1818 C   0  0  0  0  0  0  0  0  0  0  0  0
   29.7743   34.9110   63.7560 C   0  0  0  0  0  0  0  0  0  0  0  0
   29.5390   35.7111   64.8267 C   0  0  0  0  0  0  0  0  0  0  0  0
   30.5837   36.4766   65.3765 C   0  0  0  0  0  0  0  0  0  0  0  0
   30.3642   37.3119   66.4846 C   0  0  0  0  0  0  0  0  0  0  0  0
   31.3948   38.0402   66.9954 C   0  0  0  0  0  0  0  0  0  0  0  0
   32.6692   37.9717   66.4356 C   0  0  0  0  0  0  0  0  0  0  0  0
   32.9200   37.1744   65.3617 C   0  0  0  0  0  0  0  0  0  0  0  0
   31.8804   36.4067   64.8068 C   0  0  0  0  0  0  0  0  0  0  0  0
   32.1047   35.5741   63.6999 C   0  0  0  0  0  0  0  0  0  0  0  0
   30.4125   36.6238   61.8248 H   0  0  0  0  0  0  0  0  0  0  0  0
   30.9781   37.7785   60.5940 H   0  0  0  0  0  0  0  0  0  0  0  0
   29.9706   36.3912   60.1162 H   0  0  0  0  0  0  0  0  0  0  0  0
   33.6034   38.8625   56.8346 H   0  0  0  0  0  0  0  0  0  0  0  0
   33.8645   37.8840   55.4940 H   0  0  0  0  0  0  0  0  0  0  0  0
   33.1028   33.2736   55.7119 H   0  0  0  0  0  0  0  0  0  0  0  0
   32.5614   32.5754   57.1409 H   0  0  0  0  0  0  0  0  0  0  0  0
   32.7724   33.0034   59.7837 H   0  0  0  0  0  0  0  0  0  0  0  0
   31.0828   33.2502   59.2656 H   0  0  0  0  0  0  0  0  0  0  0  0
   28.9670   34.3270   63.3393 H   0  0  0  0  0  0  0  0  0  0  0  0
   28.5496   35.7603   65.2570 H   0  0  0  0  0  0  0  0  0  0  0  0
   29.3832   37.3728   66.9319 H   0  0  0  0  0  0  0  0  0  0  0  0
   31.2219   38.6812   67.8472 H   0  0  0  0  0  0  0  0  0  0  0  0
   33.4693   38.5602   66.8600 H   0  0  0  0  0  0  0  0  0  0  0  0
   33.9125   37.1310   64.9380 H   0  0  0  0  0  0  0  0  0  0  0  0
   33.0874   35.5113   63.2562 H   0  0  0  0  0  0  0  0  0  0  0  0
  1  2  1  0  0  0  0
  1 26  1  0  0  0  0
  1 27  1  0  0  0  0
  1 28  1  0  0  0  0
  2  3  1  1  0  0  0
  2 13  1  0  0  0  0
  2  4  1  0  0  0  0
  4 11  2  0  0  0  0
  4  5  1  0  0  0  0
  5  6  2  0  0  0  0
  6  7  1  0  0  0  0
  6  8  1  0  0  0  0
  7 29  1  0  0  0  0
  7 30  1  0  0  0  0
  8  9  2  0  0  0  0
  9 10  1  0  0  0  0
  9 11  1  0  0  0  0
 10 31  1  0  0  0  0
 10 32  1  0  0  0  0
 11 12  1  0  0  0  0
 12 13  1  0  0  0  0
 12 33  1  0  0  0  0
 12 34  1  0  0  0  0
 13 14  1  0  0  0  0
 14 15  2  0  0  0  0
 14 16  1  0  0  0  0
 16 25  2  0  0  0  0
 16 17  1  0  0  0  0
 17 18  2  0  0  0  0
 17 35  1  0  0  0  0
 18 19  1  0  0  0  0
 18 36  1  0  0  0  0
 19 24  2  0  0  0  0
 19 20  1  0  0  0  0
 20 21  2  0  0  0  0
 20 37  1  0  0  0  0
 21 22  1  0  0  0  0
 21 38  1  0  0  0  0
 22 23  2  0  0  0  0
 22 39  1  0  0  0  0
 23 24  1  0  0  0  0
 23 40  1  0  0  0  0
 24 25  1  0  0  0  0
 25 41  1  0  0  0  0
M  END
$$$$
