ZINC000000000133      none
 OpenBabel11202420153D

 29 30  0  0  1  0  0  0  0  0999 V2000
   28.2817   35.5153   63.7868 C   0  0  0  0  0  0  0  0  0  0  0  0
   29.2012   36.0088   64.8150 N   0  0  0  0  0  0  0  0  0  0  0  0
   29.0034   35.5661   66.0390 C   0  0  0  0  0  0  0  0  0  0  0  0
   28.0162   34.8788   66.1935 O   0  0  0  0  0  0  0  0  0  0  0  0
   29.8287   35.7951   67.2598 C   0  0  0  0  0  0  0  0  0  0  0  0
   30.7054   37.0403   67.1232 C   0  0  0  0  0  0  0  0  0  0  0  0
   31.6137   36.9275   65.5506 S   0  0  0  0  0  0  0  0  0  0  0  0
   32.3731   38.1155   65.3741 O   0  0  0  0  0  0  0  0  0  0  0  0
   32.2649   35.6661   65.4872 O   0  0  0  0  0  0  0  0  0  0  0  0
   30.2333   36.9340   64.3697 C   0  0  1  0  0  0  0  0  0  0  0  0
   29.8162   37.9389   64.3052 H   0  0  0  0  0  0  0  0  0  0  0  0
   30.7332   36.5118   63.0121 C   0  0  0  0  0  0  0  0  0  0  0  0
   31.8017   35.6406   62.9095 C   0  0  0  0  0  0  0  0  0  0  0  0
   32.2569   35.2486   61.6647 C   0  0  0  0  0  0  0  0  0  0  0  0
   31.6503   35.7371   60.5212 C   0  0  0  0  0  0  0  0  0  0  0  0
   32.2265   35.2511   58.9574 Cl  0  0  0  0  0  0  0  0  0  0  0  0
   30.5846   36.6134   60.6246 C   0  0  0  0  0  0  0  0  0  0  0  0
   30.1267   37.0003   61.8699 C   0  0  0  0  0  0  0  0  0  0  0  0
   28.6834   34.6018   63.3482 H   0  0  0  0  0  0  0  0  0  0  0  0
   27.3115   35.3057   64.2373 H   0  0  0  0  0  0  0  0  0  0  0  0
   28.1660   36.2710   63.0099 H   0  0  0  0  0  0  0  0  0  0  0  0
   30.4672   34.9273   67.4252 H   0  0  0  0  0  0  0  0  0  0  0  0
   29.1677   35.9183   68.1176 H   0  0  0  0  0  0  0  0  0  0  0  0
   30.0792   37.9325   67.1229 H   0  0  0  0  0  0  0  0  0  0  0  0
   31.4104   37.0863   67.9531 H   0  0  0  0  0  0  0  0  0  0  0  0
   32.2779   35.2628   63.8021 H   0  0  0  0  0  0  0  0  0  0  0  0
   33.0889   34.5646   61.5847 H   0  0  0  0  0  0  0  0  0  0  0  0
   30.1105   36.9947   59.7323 H   0  0  0  0  0  0  0  0  0  0  0  0
   29.2951   37.6845   61.9508 H   0  0  0  0  0  0  0  0  0  0  0  0
  1  2  1  0  0  0  0
  1 19  1  0  0  0  0
  1 20  1  0  0  0  0
  1 21  1  0  0  0  0
  2 10  1  0  0  0  0
  2  3  1  0  0  0  0
  3  4  2  0  0  0  0
  3  5  1  0  0  0  0
  5  6  1  0  0  0  0
  5 22  1  0  0  0  0
  5 23  1  0  0  0  0
  6  7  1  0  0  0  0
  6 24  1  0  0  0  0
  6 25  1  0  0  0  0
  7  8  2  0  0  0  0
  7  9  2  0  0  0  0
  7 10  1  0  0  0  0
 10 11  1  6  0  0  0
 10 12  1  0  0  0  0
 12 18  2  0  0  0  0
 12 13  1  0  0  0  0
 13 14  2  0  0  0  0
 13 26  1  0  0  0  0
 14 15  1  0  0  0  0
 14 27  1  0  0  0  0
 15 16  1  0  0  0  0
 15 17  2  0  0  0  0
 17 18  1  0  0  0  0
 17 28  1  0  0  0  0
 18 29  1  0  0  0  0
M  END
$$$$
