ZINC000000027314      none
 OpenBabel11202420153D

 25 26  0  0  0  0  0  0  0  0999 V2000
   34.0490   32.5726   53.8634 C   0  0  0  0  0  0  0  0  0  0  0  0
   33.4622   33.1289   55.1350 C   0  0  0  0  0  0  0  0  0  0  0  0
   32.8256   32.4088   55.8749 O   0  0  0  0  0  0  0  0  0  0  0  0
   33.6447   34.4265   55.4503 N   0  0  0  0  0  0  0  0  0  0  0  0
   33.0998   34.9429   56.6312 C   0  0  0  0  0  0  0  0  0  0  0  0
   32.3698   34.1182   57.4788 C   0  0  0  0  0  0  0  0  0  0  0  0
   31.8301   34.6250   58.6453 C   0  0  0  0  0  0  0  0  0  0  0  0
   32.0127   35.9534   58.9753 C   0  0  0  0  0  0  0  0  0  0  0  0
   32.7430   36.7873   58.1313 C   0  0  0  0  0  0  0  0  0  0  0  0
   32.9407   38.2157   58.4852 C   0  0  0  0  0  0  0  0  0  0  0  0
   33.6411   39.1861   57.7457 C   0  0  0  0  0  0  0  0  0  0  0  0
   33.5528   40.2965   58.4397 N   0  0  0  0  0  0  0  0  0  0  0  0
   32.8724   40.0693   59.5064 N   0  0  0  0  0  0  0  0  0  0  0  0
   32.6703   40.7362   60.1812 H   0  0  0  0  0  0  0  0  0  0  0  0
   32.4904   38.8426   59.5579 N   0  0  0  0  0  0  0  0  0  0  0  0
   33.2875   36.2778   56.9558 C   0  0  0  0  0  0  0  0  0  0  0  0
   34.5822   33.3621   53.3335 H   0  0  0  0  0  0  0  0  0  0  0  0
   34.7408   31.7657   54.1049 H   0  0  0  0  0  0  0  0  0  0  0  0
   33.2483   32.1880   53.2316 H   0  0  0  0  0  0  0  0  0  0  0  0
   34.1538   35.0023   54.8586 H   0  0  0  0  0  0  0  0  0  0  0  0
   32.2243   33.0787   57.2249 H   0  0  0  0  0  0  0  0  0  0  0  0
   31.2638   33.9802   59.3011 H   0  0  0  0  0  0  0  0  0  0  0  0
   31.5931   36.3449   59.8902 H   0  0  0  0  0  0  0  0  0  0  0  0
   34.1468   39.0463   56.8017 H   0  0  0  0  0  0  0  0  0  0  0  0
   33.8546   36.9204   56.2987 H   0  0  0  0  0  0  0  0  0  0  0  0
  1  2  1  0  0  0  0
  1 17  1  0  0  0  0
  1 18  1  0  0  0  0
  1 19  1  0  0  0  0
  2  3  2  0  0  0  0
  2  4  1  0  0  0  0
  4  5  1  0  0  0  0
  4 20  1  0  0  0  0
  5 16  2  0  0  0  0
  5  6  1  0  0  0  0
  6  7  2  0  0  0  0
  6 21  1  0  0  0  0
  7  8  1  0  0  0  0
  7 22  1  0  0  0  0
  8  9  2  0  0  0  0
  8 23  1  0  0  0  0
  9 10  1  0  0  0  0
  9 16  1  0  0  0  0
 10 15  2  0  0  0  0
 10 11  1  0  0  0  0
 11 12  2  0  0  0  0
 11 24  1  0  0  0  0
 12 13  1  0  0  0  0
 13 14  1  0  0  0  0
 13 15  1  0  0  0  0
 16 25  1  0  0  0  0
M  END
$$$$
