ZINC000000006118      none
 OpenBabel11202420153D

 35 36  0  0  0  0  0  0  0  0999 V2000
   31.9062   33.8866   59.7332 C   0  0  0  0  0  0  0  0  0  0  0  0
   32.3467   35.0370   58.8650 C   0  0  0  0  0  0  0  0  0  0  0  0
   32.3322   36.3013   59.3568 C   0  0  0  0  0  0  0  0  0  0  0  0
   32.7617   37.3932   58.4835 C   0  0  0  0  0  0  0  0  0  0  0  0
   32.7763   38.7205   58.9305 C   0  0  0  0  0  0  0  0  0  0  0  0
   33.2004   39.6967   58.0494 C   0  0  0  0  0  0  0  0  0  0  0  0
   33.5972   39.3355   56.7706 C   0  0  0  0  0  0  0  0  0  0  0  0
   33.5809   38.0808   56.3717 N   0  0  0  0  0  0  0  0  0  0  0  0
   33.1842   37.1011   57.1722 C   0  0  0  0  0  0  0  0  0  0  0  0
   33.1750   35.7961   56.7360 N   0  0  0  0  0  0  0  0  0  0  0  0
   33.6088   35.4899   55.3707 C   0  0  0  0  0  0  0  0  0  0  0  0
   32.4054   35.5492   54.4277 C   0  0  0  0  0  0  0  0  0  0  0  0
   32.8585   35.2294   53.0017 C   0  0  0  0  0  0  0  0  0  0  0  0
   33.9053   36.2531   52.5577 C   0  0  0  0  0  0  0  0  0  0  0  0
   33.4683   33.8267   52.9628 C   0  0  0  0  0  0  0  0  0  0  0  0
   32.7743   34.7977   57.5415 C   0  0  0  0  0  0  0  0  0  0  0  0
   32.7800   33.6551   57.1175 O   0  0  0  0  0  0  0  0  0  0  0  0
   31.6142   34.2625   60.7137 H   0  0  0  0  0  0  0  0  0  0  0  0
   31.0573   33.3852   59.2687 H   0  0  0  0  0  0  0  0  0  0  0  0
   32.7288   33.1802   59.8450 H   0  0  0  0  0  0  0  0  0  0  0  0
   32.0068   36.4974   60.3678 H   0  0  0  0  0  0  0  0  0  0  0  0
   32.4619   38.9737   59.9322 H   0  0  0  0  0  0  0  0  0  0  0  0
   33.2224   40.7326   58.3540 H   0  0  0  0  0  0  0  0  0  0  0  0
   33.9279   40.1020   56.0853 H   0  0  0  0  0  0  0  0  0  0  0  0
   34.3547   36.2190   55.0543 H   0  0  0  0  0  0  0  0  0  0  0  0
   34.0433   34.4905   55.3429 H   0  0  0  0  0  0  0  0  0  0  0  0
   31.6596   34.8200   54.7441 H   0  0  0  0  0  0  0  0  0  0  0  0
   31.9711   36.5486   54.4555 H   0  0  0  0  0  0  0  0  0  0  0  0
   32.0011   35.2717   52.3300 H   0  0  0  0  0  0  0  0  0  0  0  0
   34.7627   36.2108   53.2293 H   0  0  0  0  0  0  0  0  0  0  0  0
   34.2281   36.0253   51.5418 H   0  0  0  0  0  0  0  0  0  0  0  0
   33.4709   37.2524   52.5854 H   0  0  0  0  0  0  0  0  0  0  0  0
   32.7225   33.0974   53.2793 H   0  0  0  0  0  0  0  0  0  0  0  0
   33.7910   33.5989   51.9470 H   0  0  0  0  0  0  0  0  0  0  0  0
   34.3256   33.7844   53.6345 H   0  0  0  0  0  0  0  0  0  0  0  0
  1  2  1  0  0  0  0
  1 18  1  0  0  0  0
  1 19  1  0  0  0  0
  1 20  1  0  0  0  0
  2 16  1  0  0  0  0
  2  3  2  0  0  0  0
  3  4  1  0  0  0  0
  3 21  1  0  0  0  0
  4  9  2  0  0  0  0
  4  5  1  0  0  0  0
  5  6  2  0  0  0  0
  5 22  1  0  0  0  0
  6  7  1  0  0  0  0
  6 23  1  0  0  0  0
  7  8  2  0  0  0  0
  7 24  1  0  0  0  0
  8  9  1  0  0  0  0
  9 10  1  0  0  0  0
 10 11  1  0  0  0  0
 10 16  1  0  0  0  0
 11 12  1  0  0  0  0
 11 25  1  0  0  0  0
 11 26  1  0  0  0  0
 12 13  1  0  0  0  0
 12 27  1  0  0  0  0
 12 28  1  0  0  0  0
 13 14  1  0  0  0  0
 13 15  1  0  0  0  0
 13 29  1  0  0  0  0
 14 30  1  0  0  0  0
 14 31  1  0  0  0  0
 14 32  1  0  0  0  0
 15 33  1  0  0  0  0
 15 34  1  0  0  0  0
 15 35  1  0  0  0  0
 16 17  2  0  0  0  0
M  END
$$$$
