ZINC000000047692      none
 OpenBabel11202420153D

 41 43  0  0  0  0  0  0  0  0999 V2000
   32.5545   37.1460   67.2836 C   0  0  0  0  0  0  0  0  0  0  0  0
   31.6021   36.0194   67.5916 C   0  0  0  0  0  0  0  0  0  0  0  0
   31.5382   35.5699   68.7159 O   0  0  0  0  0  0  0  0  0  0  0  0
   30.7494   35.4648   66.5277 C   0  0  0  0  0  0  0  0  0  0  0  0
   29.4975   34.9251   66.8410 C   0  0  0  0  0  0  0  0  0  0  0  0
   28.7016   34.4060   65.8414 C   0  0  0  0  0  0  0  0  0  0  0  0
   29.1340   34.4213   64.5279 C   0  0  0  0  0  0  0  0  0  0  0  0
   30.3783   34.9501   64.2058 C   0  0  0  0  0  0  0  0  0  0  0  0
   30.8119   34.9580   62.8750 N   0  0  0  0  0  0  0  0  0  0  0  0
   30.1011   35.6169   61.9386 C   0  0  0  0  0  0  0  0  0  0  0  0
   29.0857   36.2029   62.2489 O   0  0  0  0  0  0  0  0  0  0  0  0
   30.5681   35.6252   60.5058 C   0  0  0  0  0  0  0  0  0  0  0  0
   31.9593   36.2571   60.4265 C   0  0  0  0  0  0  0  0  0  0  0  0
   32.4132   36.2653   59.0336 N   0  0  0  0  0  0  0  0  0  0  0  0
   32.5747   35.1633   58.2792 C   0  0  0  0  0  0  0  0  0  0  0  0
   32.3698   34.0216   58.6390 O   0  0  0  0  0  0  0  0  0  0  0  0
   33.0430   35.5746   56.9388 C   0  0  0  0  0  0  0  0  0  0  0  0
   33.3689   34.8940   55.7766 C   0  0  0  0  0  0  0  0  0  0  0  0
   33.7911   35.6009   54.6617 C   0  0  0  0  0  0  0  0  0  0  0  0
   33.8795   36.9799   54.6985 C   0  0  0  0  0  0  0  0  0  0  0  0
   33.5565   37.6741   55.8539 C   0  0  0  0  0  0  0  0  0  0  0  0
   33.1376   36.9803   56.9779 C   0  0  0  0  0  0  0  0  0  0  0  0
   32.7238   37.3757   58.3408 C   0  0  0  0  0  0  0  0  0  0  0  0
   32.6734   38.5129   58.7643 O   0  0  0  0  0  0  0  0  0  0  0  0
   31.1874   35.4747   65.2009 C   0  0  0  0  0  0  0  0  0  0  0  0
   32.4717   37.4140   66.2303 H   0  0  0  0  0  0  0  0  0  0  0  0
   32.3058   38.0105   67.8990 H   0  0  0  0  0  0  0  0  0  0  0  0
   33.5747   36.8282   67.4984 H   0  0  0  0  0  0  0  0  0  0  0  0
   29.1545   34.9147   67.8650 H   0  0  0  0  0  0  0  0  0  0  0  0
   27.7351   33.9900   66.0849 H   0  0  0  0  0  0  0  0  0  0  0  0
   28.5039   34.0167   63.7496 H   0  0  0  0  0  0  0  0  0  0  0  0
   31.6241   34.4892   62.6268 H   0  0  0  0  0  0  0  0  0  0  0  0
   29.8711   36.2041   59.8998 H   0  0  0  0  0  0  0  0  0  0  0  0
   30.6118   34.6022   60.1318 H   0  0  0  0  0  0  0  0  0  0  0  0
   32.6563   35.6782   61.0324 H   0  0  0  0  0  0  0  0  0  0  0  0
   31.9155   37.2800   60.8004 H   0  0  0  0  0  0  0  0  0  0  0  0
   33.2984   33.8168   55.7411 H   0  0  0  0  0  0  0  0  0  0  0  0
   34.0496   35.0710   53.7568 H   0  0  0  0  0  0  0  0  0  0  0  0
   34.2060   37.5200   53.8221 H   0  0  0  0  0  0  0  0  0  0  0  0
   33.6313   38.7513   55.8782 H   0  0  0  0  0  0  0  0  0  0  0  0
   32.1530   35.8894   64.9518 H   0  0  0  0  0  0  0  0  0  0  0  0
  1  2  1  0  0  0  0
  1 26  1  0  0  0  0
  1 27  1  0  0  0  0
  1 28  1  0  0  0  0
  2  3  2  0  0  0  0
  2  4  1  0  0  0  0
  4 25  2  0  0  0  0
  4  5  1  0  0  0  0
  5  6  2  0  0  0  0
  5 29  1  0  0  0  0
  6  7  1  0  0  0  0
  6 30  1  0  0  0  0
  7  8  2  0  0  0  0
  7 31  1  0  0  0  0
  8  9  1  0  0  0  0
  8 25  1  0  0  0  0
  9 10  1  0  0  0  0
  9 32  1  0  0  0  0
 10 11  2  0  0  0  0
 10 12  1  0  0  0  0
 12 13  1  0  0  0  0
 12 33  1  0  0  0  0
 12 34  1  0  0  0  0
 13 14  1  0  0  0  0
 13 35  1  0  0  0  0
 13 36  1  0  0  0  0
 14 23  1  0  0  0  0
 14 15  1  0  0  0  0
 15 16  2  0  0  0  0
 15 17  1  0  0  0  0
 17 22  2  0  0  0  0
 17 18  1  0  0  0  0
 18 19  2  0  0  0  0
 18 37  1  0  0  0  0
 19 20  1  0  0  0  0
 19 38  1  0  0  0  0
 20 21  2  0  0  0  0
 20 39  1  0  0  0  0
 21 22  1  0  0  0  0
 21 40  1  0  0  0  0
 22 23  1  0  0  0  0
 23 24  2  0  0  0  0
 25 41  1  0  0  0  0
M  END
$$$$
