ZINC000000031526      none
 OpenBabel11202420163D

 36 38  0  0  0  0  0  0  0  0999 V2000
   30.7609   37.4167   60.0552 O   0  0  0  0  0  0  0  0  0  0  0  0
   31.1489   38.4339   60.5949 C   0  0  0  0  0  0  0  0  0  0  0  0
   32.1359   39.1602   60.0337 N   0  0  0  0  0  0  0  0  0  0  0  0
   32.7137   38.7428   58.8294 C   0  0  0  0  0  0  0  0  0  0  0  0
   33.2196   39.6805   57.9388 C   0  0  0  0  0  0  0  0  0  0  0  0
   33.7928   39.2651   56.7528 C   0  0  0  0  0  0  0  0  0  0  0  0
   33.8547   37.9179   56.4477 C   0  0  0  0  0  0  0  0  0  0  0  0
   33.3474   36.9820   57.3302 C   0  0  0  0  0  0  0  0  0  0  0  0
   32.7769   37.3906   58.5198 C   0  0  0  0  0  0  0  0  0  0  0  0
   30.5927   38.8356   61.7540 O   0  0  0  0  0  0  0  0  0  0  0  0
   31.1602   38.3788   62.9017 C   0  0  0  0  0  0  0  0  0  0  0  0
   32.2619   37.5378   62.8451 C   0  0  0  0  0  0  0  0  0  0  0  0
   32.8370   37.0754   64.0130 C   0  0  0  0  0  0  0  0  0  0  0  0
   32.3153   37.4499   65.2375 C   0  0  0  0  0  0  0  0  0  0  0  0
   32.9443   36.9435   66.5098 C   0  0  0  0  0  0  0  0  0  0  0  0
   33.3499   38.3309   67.6317 S   0  0  0  0  0  0  0  0  0  0  0  0
   32.9746   37.6237   69.2616 C   0  0  0  0  0  0  0  0  0  0  0  0
   32.5366   36.1608   69.1291 C   0  0  0  0  0  0  0  0  0  0  0  0
   31.7332   35.9777   67.4971 S   0  0  0  0  0  0  0  0  0  0  0  0
   31.2139   38.2837   65.2963 C   0  0  0  0  0  0  0  0  0  0  0  0
   30.6385   38.7533   64.1314 C   0  0  0  0  0  0  0  0  0  0  0  0
   32.4456   39.9722   60.4646 H   0  0  0  0  0  0  0  0  0  0  0  0
   33.1682   40.7331   58.1749 H   0  0  0  0  0  0  0  0  0  0  0  0
   34.1898   39.9936   56.0614 H   0  0  0  0  0  0  0  0  0  0  0  0
   34.2999   37.5959   55.5178 H   0  0  0  0  0  0  0  0  0  0  0  0
   33.3970   35.9305   57.0889 H   0  0  0  0  0  0  0  0  0  0  0  0
   32.3803   36.6592   59.2084 H   0  0  0  0  0  0  0  0  0  0  0  0
   32.6700   37.2453   61.8890 H   0  0  0  0  0  0  0  0  0  0  0  0
   33.6951   36.4209   63.9695 H   0  0  0  0  0  0  0  0  0  0  0  0
   33.8312   36.3476   66.2943 H   0  0  0  0  0  0  0  0  0  0  0  0
   33.8640   37.6768   69.8894 H   0  0  0  0  0  0  0  0  0  0  0  0
   32.1728   38.1979   69.7260 H   0  0  0  0  0  0  0  0  0  0  0  0
   33.4064   35.5066   69.1899 H   0  0  0  0  0  0  0  0  0  0  0  0
   31.8281   35.9131   69.9195 H   0  0  0  0  0  0  0  0  0  0  0  0
   30.8056   38.5713   66.2538 H   0  0  0  0  0  0  0  0  0  0  0  0
   29.7808   39.4078   64.1781 H   0  0  0  0  0  0  0  0  0  0  0  0
  1  2  2  0  0  0  0
  2  3  1  0  0  0  0
  2 10  1  0  0  0  0
  3  4  1  0  0  0  0
  3 22  1  0  0  0  0
  4  9  2  0  0  0  0
  4  5  1  0  0  0  0
  5  6  2  0  0  0  0
  5 23  1  0  0  0  0
  6  7  1  0  0  0  0
  6 24  1  0  0  0  0
  7  8  2  0  0  0  0
  7 25  1  0  0  0  0
  8  9  1  0  0  0  0
  8 26  1  0  0  0  0
  9 27  1  0  0  0  0
 10 11  1  0  0  0  0
 11 21  2  0  0  0  0
 11 12  1  0  0  0  0
 12 13  2  0  0  0  0
 12 28  1  0  0  0  0
 13 14  1  0  0  0  0
 13 29  1  0  0  0  0
 14 15  1  0  0  0  0
 14 20  2  0  0  0  0
 15 19  1  0  0  0  0
 15 16  1  0  0  0  0
 15 30  1  0  0  0  0
 16 17  1  0  0  0  0
 17 18  1  0  0  0  0
 17 31  1  0  0  0  0
 17 32  1  0  0  0  0
 18 19  1  0  0  0  0
 18 33  1  0  0  0  0
 18 34  1  0  0  0  0
 20 21  1  0  0  0  0
 20 35  1  0  0  0  0
 21 36  1  0  0  0  0
M  END
$$$$
