ZINC000000045243      none
 OpenBabel11202420153D

 34 35  0  0  0  0  0  0  0  0999 V2000
   32.8431   34.5721   53.0256 C   0  0  0  0  0  0  0  0  0  0  0  0
   33.0021   36.0921   53.0990 C   0  0  0  0  0  0  0  0  0  0  0  0
   32.5611   36.5625   54.3999 O   0  0  0  0  0  0  0  0  0  0  0  0
   33.4891   36.6236   55.3752 C   0  0  0  0  0  0  0  0  0  0  0  0
   34.6352   36.2927   55.1446 O   0  0  0  0  0  0  0  0  0  0  0  0
   33.1135   37.0918   56.7220 C   0  0  0  0  0  0  0  0  0  0  0  0
   33.1986   38.4504   57.0406 C   0  0  0  0  0  0  0  0  0  0  0  0
   32.8476   38.8839   58.2988 C   0  0  0  0  0  0  0  0  0  0  0  0
   32.4083   37.9715   59.2535 C   0  0  0  0  0  0  0  0  0  0  0  0
   32.0543   38.4137   60.5264 N   0  0  0  0  0  0  0  0  0  0  0  0
   32.2128   37.6015   61.5902 C   0  0  0  0  0  0  0  0  0  0  0  0
   32.6647   36.4831   61.4392 O   0  0  0  0  0  0  0  0  0  0  0  0
   31.8369   38.0705   62.9406 C   0  0  0  0  0  0  0  0  0  0  0  0
   32.4659   37.5466   64.0769 C   0  0  0  0  0  0  0  0  0  0  0  0
   32.0746   38.0163   65.3180 C   0  0  0  0  0  0  0  0  0  0  0  0
   31.0909   38.9863   65.3956 C   0  0  0  0  0  0  0  0  0  0  0  0
   30.5190   39.4648   64.3074 N   0  0  0  0  0  0  0  0  0  0  0  0
   30.8532   39.0464   63.1044 C   0  0  0  0  0  0  0  0  0  0  0  0
   32.3275   36.6176   58.9416 C   0  0  0  0  0  0  0  0  0  0  0  0
   32.6718   36.1779   57.6836 C   0  0  0  0  0  0  0  0  0  0  0  0
   33.4464   34.1057   53.8044 H   0  0  0  0  0  0  0  0  0  0  0  0
   31.7953   34.3090   53.1711 H   0  0  0  0  0  0  0  0  0  0  0  0
   33.1741   34.2189   52.0490 H   0  0  0  0  0  0  0  0  0  0  0  0
   32.3987   36.5586   52.3203 H   0  0  0  0  0  0  0  0  0  0  0  0
   34.0497   36.3551   52.9533 H   0  0  0  0  0  0  0  0  0  0  0  0
   33.5397   39.1590   56.3002 H   0  0  0  0  0  0  0  0  0  0  0  0
   32.9135   39.9333   58.5457 H   0  0  0  0  0  0  0  0  0  0  0  0
   31.6937   39.3060   60.6470 H   0  0  0  0  0  0  0  0  0  0  0  0
   33.2342   36.7927   63.9869 H   0  0  0  0  0  0  0  0  0  0  0  0
   32.5352   37.6332   66.2165 H   0  0  0  0  0  0  0  0  0  0  0  0
   30.7863   39.3575   66.3630 H   0  0  0  0  0  0  0  0  0  0  0  0
   30.3620   39.4623   62.2371 H   0  0  0  0  0  0  0  0  0  0  0  0
   31.9901   35.9118   59.6861 H   0  0  0  0  0  0  0  0  0  0  0  0
   32.6052   35.1277   57.4409 H   0  0  0  0  0  0  0  0  0  0  0  0
  1  2  1  0  0  0  0
  1 21  1  0  0  0  0
  1 22  1  0  0  0  0
  1 23  1  0  0  0  0
  2  3  1  0  0  0  0
  2 24  1  0  0  0  0
  2 25  1  0  0  0  0
  3  4  1  0  0  0  0
  4  5  2  0  0  0  0
  4  6  1  0  0  0  0
  6 20  2  0  0  0  0
  6  7  1  0  0  0  0
  7  8  2  0  0  0  0
  7 26  1  0  0  0  0
  8  9  1  0  0  0  0
  8 27  1  0  0  0  0
  9 10  1  0  0  0  0
  9 19  2  0  0  0  0
 10 11  1  0  0  0  0
 10 28  1  0  0  0  0
 11 12  2  0  0  0  0
 11 13  1  0  0  0  0
 13 18  2  0  0  0  0
 13 14  1  0  0  0  0
 14 15  2  0  0  0  0
 14 29  1  0  0  0  0
 15 16  1  0  0  0  0
 15 30  1  0  0  0  0
 16 17  2  0  0  0  0
 16 31  1  0  0  0  0
 17 18  1  0  0  0  0
 18 32  1  0  0  0  0
 19 20  1  0  0  0  0
 19 33  1  0  0  0  0
 20 34  1  0  0  0  0
M  END
$$$$
