ZINC000000043147      none
 OpenBabel11202420153D

 37 39  0  0  0  0  0  0  0  0999 V2000
   35.0447   30.9074   53.4178 C   0  0  0  0  0  0  0  0  0  0  0  0
   34.4379   31.8143   52.5581 C   0  0  0  0  0  0  0  0  0  0  0  0
   33.8350   32.9348   53.0992 C   0  0  0  0  0  0  0  0  0  0  0  0
   33.8654   33.1203   54.4784 C   0  0  0  0  0  0  0  0  0  0  0  0
   33.1074   34.5456   55.1847 S   0  0  0  0  0  0  0  0  0  0  0  0
   33.4103   34.3310   56.9604 C   0  0  0  0  0  0  0  0  0  0  0  0
   32.8121   35.4900   57.7156 C   0  0  0  0  0  0  0  0  0  0  0  0
   33.0028   36.7781   57.2527 C   0  0  0  0  0  0  0  0  0  0  0  0
   32.4483   37.8374   57.9548 C   0  0  0  0  0  0  0  0  0  0  0  0
   31.7241   37.5602   59.1042 C   0  0  0  0  0  0  0  0  0  0  0  0
   31.5708   36.2458   59.5029 C   0  0  0  0  0  0  0  0  0  0  0  0
   30.7800   35.9323   60.7468 C   0  0  0  0  0  0  0  0  0  0  0  0
   31.8891   35.9243   62.1824 S   0  0  0  0  0  0  0  0  0  0  0  0
   30.9850   34.9961   63.3765 C   0  0  0  0  0  0  0  0  0  0  0  0
   30.6371   35.5849   64.5888 C   0  0  0  0  0  0  0  0  0  0  0  0
   29.9236   34.8464   65.5148 C   0  0  0  0  0  0  0  0  0  0  0  0
   29.5889   33.5352   65.2011 C   0  0  0  0  0  0  0  0  0  0  0  0
   29.9705   33.0128   63.9819 C   0  0  0  0  0  0  0  0  0  0  0  0
   30.6469   33.7423   63.1148 N   0  0  0  0  0  0  0  0  0  0  0  0
   32.1126   35.2632   58.8101 N   0  0  0  0  0  0  0  0  0  0  0  0
   34.4543   32.2320   55.2650 N   0  0  0  0  0  0  0  0  0  0  0  0
   35.0329   31.1514   54.7764 C   0  0  0  0  0  0  0  0  0  0  0  0
   35.5204   30.0200   53.0272 H   0  0  0  0  0  0  0  0  0  0  0  0
   34.4337   31.6458   51.4913 H   0  0  0  0  0  0  0  0  0  0  0  0
   33.3507   33.6583   52.4601 H   0  0  0  0  0  0  0  0  0  0  0  0
   34.4840   34.2933   57.1439 H   0  0  0  0  0  0  0  0  0  0  0  0
   32.9511   33.4018   57.2976 H   0  0  0  0  0  0  0  0  0  0  0  0
   33.5762   36.9574   56.3552 H   0  0  0  0  0  0  0  0  0  0  0  0
   32.5813   38.8545   57.6169 H   0  0  0  0  0  0  0  0  0  0  0  0
   31.2819   38.3610   59.6783 H   0  0  0  0  0  0  0  0  0  0  0  0
   30.0089   36.6897   60.8877 H   0  0  0  0  0  0  0  0  0  0  0  0
   30.3129   34.9530   60.6432 H   0  0  0  0  0  0  0  0  0  0  0  0
   30.9173   36.6059   64.8018 H   0  0  0  0  0  0  0  0  0  0  0  0
   29.6365   35.2779   66.4622 H   0  0  0  0  0  0  0  0  0  0  0  0
   29.0358   32.9303   65.9045 H   0  0  0  0  0  0  0  0  0  0  0  0
   29.7127   31.9938   63.7343 H   0  0  0  0  0  0  0  0  0  0  0  0
   35.5032   30.4486   55.4481 H   0  0  0  0  0  0  0  0  0  0  0  0
  1 22  2  0  0  0  0
  1  2  1  0  0  0  0
  1 23  1  0  0  0  0
  2  3  2  0  0  0  0
  2 24  1  0  0  0  0
  3  4  1  0  0  0  0
  3 25  1  0  0  0  0
  4  5  1  0  0  0  0
  4 21  2  0  0  0  0
  5  6  1  0  0  0  0
  6  7  1  0  0  0  0
  6 26  1  0  0  0  0
  6 27  1  0  0  0  0
  7 20  2  0  0  0  0
  7  8  1  0  0  0  0
  8  9  2  0  0  0  0
  8 28  1  0  0  0  0
  9 10  1  0  0  0  0
  9 29  1  0  0  0  0
 10 11  2  0  0  0  0
 10 30  1  0  0  0  0
 11 12  1  0  0  0  0
 11 20  1  0  0  0  0
 12 13  1  0  0  0  0
 12 31  1  0  0  0  0
 12 32  1  0  0  0  0
 13 14  1  0  0  0  0
 14 19  2  0  0  0  0
 14 15  1  0  0  0  0
 15 16  2  0  0  0  0
 15 33  1  0  0  0  0
 16 17  1  0  0  0  0
 16 34  1  0  0  0  0
 17 18  2  0  0  0  0
 17 35  1  0  0  0  0
 18 19  1  0  0  0  0
 18 36  1  0  0  0  0
 21 22  1  0  0  0  0
 22 37  1  0  0  0  0
M  END
$$$$
