ZINC000000006232      none
 OpenBabel11202420153D

 39 42  0  0  0  0  0  0  0  0999 V2000
   31.2102   32.4618   59.8788 C   0  0  0  0  0  0  0  0  0  0  0  0
   31.5551   33.9285   59.9082 C   0  0  0  0  0  0  0  0  0  0  0  0
   31.4066   34.7275   60.9290 N   0  0  0  0  0  0  0  0  0  0  0  0
   31.8350   36.0150   60.5820 N   0  0  0  0  0  0  0  0  0  0  0  0
   31.8259   37.1880   61.4597 C   0  0  0  0  0  0  0  0  0  0  0  0
   32.6481   36.9015   62.7332 C   0  0  0  0  0  0  0  0  0  0  0  0
   31.8653   37.6199   63.8603 C   0  0  0  0  0  0  0  0  0  0  0  0
   30.3890   37.3750   63.4607 C   0  0  0  0  0  0  0  0  0  0  0  0
   30.3895   37.4891   61.9222 C   0  0  0  0  0  0  0  0  0  0  0  0
   32.2615   35.9894   59.2913 C   0  0  0  0  0  0  0  0  0  0  0  0
   32.7681   36.9074   58.4587 N   0  0  0  0  0  0  0  0  0  0  0  0
   33.1032   36.6135   57.2271 C   0  0  0  0  0  0  0  0  0  0  0  0
   33.6507   37.6854   56.3670 C   0  0  0  0  0  0  0  0  0  0  0  0
   34.5697   37.3946   55.3527 C   0  0  0  0  0  0  0  0  0  0  0  0
   35.0505   38.4250   54.5699 C   0  0  0  0  0  0  0  0  0  0  0  0
   34.6595   39.6682   54.7717 N   0  0  0  0  0  0  0  0  0  0  0  0
   33.7997   39.9865   55.7196 C   0  0  0  0  0  0  0  0  0  0  0  0
   33.2687   39.0193   56.5491 C   0  0  0  0  0  0  0  0  0  0  0  0
   32.9739   35.3577   56.7048 N   0  0  0  0  0  0  0  0  0  0  0  0
   33.2387   35.1855   55.7877 H   0  0  0  0  0  0  0  0  0  0  0  0
   32.4768   34.3533   57.4637 C   0  0  0  0  0  0  0  0  0  0  0  0
   32.3536   33.2266   57.0173 O   0  0  0  0  0  0  0  0  0  0  0  0
   32.0928   34.6694   58.8399 C   0  0  0  0  0  0  0  0  0  0  0  0
   32.0768   31.8786   60.1905 H   0  0  0  0  0  0  0  0  0  0  0  0
   30.3799   32.2701   60.5583 H   0  0  0  0  0  0  0  0  0  0  0  0
   30.9248   32.1758   58.8665 H   0  0  0  0  0  0  0  0  0  0  0  0
   32.2375   38.0499   60.9347 H   0  0  0  0  0  0  0  0  0  0  0  0
   32.6942   35.8294   62.9244 H   0  0  0  0  0  0  0  0  0  0  0  0
   33.6515   37.3171   62.6409 H   0  0  0  0  0  0  0  0  0  0  0  0
   32.0915   38.6860   63.8686 H   0  0  0  0  0  0  0  0  0  0  0  0
   32.0830   37.1700   64.8290 H   0  0  0  0  0  0  0  0  0  0  0  0
   29.7438   38.1362   63.8994 H   0  0  0  0  0  0  0  0  0  0  0  0
   30.0681   36.3801   63.7694 H   0  0  0  0  0  0  0  0  0  0  0  0
   30.1044   38.4976   61.6225 H   0  0  0  0  0  0  0  0  0  0  0  0
   29.6991   36.7629   61.4931 H   0  0  0  0  0  0  0  0  0  0  0  0
   34.8943   36.3788   55.1817 H   0  0  0  0  0  0  0  0  0  0  0  0
   35.7569   38.2103   53.7817 H   0  0  0  0  0  0  0  0  0  0  0  0
   33.5074   41.0181   55.8492 H   0  0  0  0  0  0  0  0  0  0  0  0
   32.5654   39.2872   57.3236 H   0  0  0  0  0  0  0  0  0  0  0  0
  1  2  1  0  0  0  0
  1 24  1  0  0  0  0
  1 25  1  0  0  0  0
  1 26  1  0  0  0  0
  2 23  1  0  0  0  0
  2  3  2  0  0  0  0
  3  4  1  0  0  0  0
  4  5  1  0  0  0  0
  4 10  1  0  0  0  0
  5  9  1  0  0  0  0
  5  6  1  0  0  0  0
  5 27  1  0  0  0  0
  6  7  1  0  0  0  0
  6 28  1  0  0  0  0
  6 29  1  0  0  0  0
  7  8  1  0  0  0  0
  7 30  1  0  0  0  0
  7 31  1  0  0  0  0
  8  9  1  0  0  0  0
  8 32  1  0  0  0  0
  8 33  1  0  0  0  0
  9 34  1  0  0  0  0
  9 35  1  0  0  0  0
 10 23  2  0  0  0  0
 10 11  1  0  0  0  0
 11 12  2  0  0  0  0
 12 13  1  0  0  0  0
 12 19  1  0  0  0  0
 13 18  2  0  0  0  0
 13 14  1  0  0  0  0
 14 15  2  0  0  0  0
 14 36  1  0  0  0  0
 15 16  1  0  0  0  0
 15 37  1  0  0  0  0
 16 17  2  0  0  0  0
 17 18  1  0  0  0  0
 17 38  1  0  0  0  0
 18 39  1  0  0  0  0
 19 20  1  0  0  0  0
 19 21  1  0  0  0  0
 21 22  2  0  0  0  0
 21 23  1  0  0  0  0
M  END
$$$$
