ZINC000000023994      none
 OpenBabel11202420153D

 49 52  0  0  0  0  0  0  0  0999 V2000
   35.0478   40.2546   55.1828 O   0  0  0  0  0  0  0  0  0  0  0  0
   34.3935   39.7683   56.0862 C   0  0  0  0  0  0  0  0  0  0  0  0
   33.9625   38.4939   56.1318 N   0  0  0  0  0  0  0  0  0  0  0  0
   34.1205   37.8168   55.4554 H   0  0  0  0  0  0  0  0  0  0  0  0
   33.2513   38.3125   57.3150 C   0  0  0  0  0  0  0  0  0  0  0  0
   32.5967   37.2218   57.8716 C   0  0  0  0  0  0  0  0  0  0  0  0
   31.9636   37.3451   59.0892 C   0  0  0  0  0  0  0  0  0  0  0  0
   31.9785   38.5666   59.7674 C   0  0  0  0  0  0  0  0  0  0  0  0
   31.3203   38.6912   61.0330 C   0  0  0  0  0  0  0  0  0  0  0  0
   30.7808   38.7934   62.0706 C   0  0  0  0  0  0  0  0  0  0  0  0
   30.1042   38.9215   63.3717 C   0  0  0  0  0  0  0  0  0  0  0  0
   30.6986   37.9777   64.3277 N   0  0  0  0  0  0  0  0  0  0  0  0
   29.7507   37.6476   65.3996 C   0  0  0  0  0  0  0  0  0  0  0  0
   30.3472   36.5565   66.2916 C   0  0  0  0  0  0  0  0  0  0  0  0
   31.6664   37.0557   66.8873 C   0  0  0  0  0  0  0  0  0  0  0  0
   32.2982   35.9472   67.7318 C   0  0  0  0  0  0  0  0  0  0  0  0
   31.3593   35.5694   68.8483 C   0  0  0  0  0  0  0  0  0  0  0  0
   31.3540   34.2772   69.3394 C   0  0  0  0  0  0  0  0  0  0  0  0
   30.4962   33.9319   70.3669 C   0  0  0  0  0  0  0  0  0  0  0  0
   29.6361   34.8759   70.8961 C   0  0  0  0  0  0  0  0  0  0  0  0
   29.6378   36.1668   70.4014 C   0  0  0  0  0  0  0  0  0  0  0  0
   30.4993   36.5134   69.3775 C   0  0  0  0  0  0  0  0  0  0  0  0
   32.6182   37.4386   65.7505 C   0  0  0  0  0  0  0  0  0  0  0  0
   31.9559   38.5040   64.8743 C   0  0  0  0  0  0  0  0  0  0  0  0
   32.6348   39.6642   59.2115 C   0  0  0  0  0  0  0  0  0  0  0  0
   33.2739   39.5357   57.9907 C   0  0  0  0  0  0  0  0  0  0  0  0
   33.9915   40.4235   57.1915 N   0  0  0  0  0  0  0  0  0  0  0  0
   34.1740   41.3534   57.3983 H   0  0  0  0  0  0  0  0  0  0  0  0
   32.5836   36.2764   57.3496 H   0  0  0  0  0  0  0  0  0  0  0  0
   31.4550   36.4955   59.5204 H   0  0  0  0  0  0  0  0  0  0  0  0
   30.2226   39.9389   63.7442 H   0  0  0  0  0  0  0  0  0  0  0  0
   29.0438   38.6992   63.2532 H   0  0  0  0  0  0  0  0  0  0  0  0
   29.5536   38.5376   65.9971 H   0  0  0  0  0  0  0  0  0  0  0  0
   28.8184   37.2900   64.9627 H   0  0  0  0  0  0  0  0  0  0  0  0
   30.5318   35.6613   65.6978 H   0  0  0  0  0  0  0  0  0  0  0  0
   29.6501   36.3228   67.0963 H   0  0  0  0  0  0  0  0  0  0  0  0
   31.4777   37.9277   67.5135 H   0  0  0  0  0  0  0  0  0  0  0  0
   32.4865   35.0756   67.1049 H   0  0  0  0  0  0  0  0  0  0  0  0
   33.2390   36.3022   68.1525 H   0  0  0  0  0  0  0  0  0  0  0  0
   32.0227   33.5385   68.9230 H   0  0  0  0  0  0  0  0  0  0  0  0
   30.4947   32.9233   70.7532 H   0  0  0  0  0  0  0  0  0  0  0  0
   28.9629   34.6049   71.6958 H   0  0  0  0  0  0  0  0  0  0  0  0
   28.9657   36.9043   70.8146 H   0  0  0  0  0  0  0  0  0  0  0  0
   30.5003   37.5219   68.9907 H   0  0  0  0  0  0  0  0  0  0  0  0
   32.8386   36.5573   65.1482 H   0  0  0  0  0  0  0  0  0  0  0  0
   33.5439   37.8346   66.1681 H   0  0  0  0  0  0  0  0  0  0  0  0
   32.6252   38.7684   64.0556 H   0  0  0  0  0  0  0  0  0  0  0  0
   31.7484   39.3900   65.4743 H   0  0  0  0  0  0  0  0  0  0  0  0
   32.6482   40.6094   59.7337 H   0  0  0  0  0  0  0  0  0  0  0  0
  1  2  2  0  0  0  0
  2 27  1  0  0  0  0
  2  3  1  0  0  0  0
  3  4  1  0  0  0  0
  3  5  1  0  0  0  0
  5 26  2  0  0  0  0
  5  6  1  0  0  0  0
  6  7  2  0  0  0  0
  6 29  1  0  0  0  0
  7  8  1  0  0  0  0
  7 30  1  0  0  0  0
  8  9  1  0  0  0  0
  8 25  2  0  0  0  0
  9 10  3  0  0  0  0
 10 11  1  0  0  0  0
 11 12  1  0  0  0  0
 11 31  1  0  0  0  0
 11 32  1  0  0  0  0
 12 24  1  0  0  0  0
 12 13  1  0  0  0  0
 13 14  1  0  0  0  0
 13 33  1  0  0  0  0
 13 34  1  0  0  0  0
 14 15  1  0  0  0  0
 14 35  1  0  0  0  0
 14 36  1  0  0  0  0
 15 16  1  0  0  0  0
 15 23  1  0  0  0  0
 15 37  1  0  0  0  0
 16 17  1  0  0  0  0
 16 38  1  0  0  0  0
 16 39  1  0  0  0  0
 17 22  2  0  0  0  0
 17 18  1  0  0  0  0
 18 19  2  0  0  0  0
 18 40  1  0  0  0  0
 19 20  1  0  0  0  0
 19 41  1  0  0  0  0
 20 21  2  0  0  0  0
 20 42  1  0  0  0  0
 21 22  1  0  0  0  0
 21 43  1  0  0  0  0
 22 44  1  0  0  0  0
 23 24  1  0  0  0  0
 23 45  1  0  0  0  0
 23 46  1  0  0  0  0
 24 47  1  0  0  0  0
 24 48  1  0  0  0  0
 25 26  1  0  0  0  0
 25 49  1  0  0  0  0
 26 27  1  0  0  0  0
 27 28  1  0  0  0  0
M  END
$$$$
