ZINC000000037198      none
 OpenBabel11202420153D

 33 35  0  0  0  0  0  0  0  0999 V2000
   28.3575   36.6786   61.9118 C   0  0  0  0  0  0  0  0  0  0  0  0
   29.4367   37.5889   61.6899 O   0  0  0  0  0  0  0  0  0  0  0  0
   30.4674   37.5485   62.5711 C   0  0  0  0  0  0  0  0  0  0  0  0
   30.4428   38.3551   63.7039 C   0  0  0  0  0  0  0  0  0  0  0  0
   31.4741   38.3163   64.5984 C   0  0  0  0  0  0  0  0  0  0  0  0
   32.5640   37.4660   64.3746 C   0  0  0  0  0  0  0  0  0  0  0  0
   33.6741   37.4225   65.3349 C   0  0  0  0  0  0  0  0  0  0  0  0
   33.6481   38.1240   66.3242 O   0  0  0  0  0  0  0  0  0  0  0  0
   32.5919   36.6575   63.2314 C   0  0  0  0  0  0  0  0  0  0  0  0
   31.5475   36.7045   62.3358 C   0  0  0  0  0  0  0  0  0  0  0  0
   31.5717   35.8370   61.1038 C   0  0  0  0  0  0  0  0  0  0  0  0
   32.2155   36.5642   60.0070 N   0  0  0  0  0  0  0  0  0  0  0  0
   32.7453   37.8621   60.0574 N   0  0  0  0  0  0  0  0  0  0  0  0
   33.2301   38.1713   58.9066 N   0  0  0  0  0  0  0  0  0  0  0  0
   33.0683   37.1508   58.0411 C   0  0  0  0  0  0  0  0  0  0  0  0
   33.4094   36.9738   56.6934 C   0  0  0  0  0  0  0  0  0  0  0  0
   33.1094   35.7999   56.0668 C   0  0  0  0  0  0  0  0  0  0  0  0
   32.4676   34.7743   56.7492 C   0  0  0  0  0  0  0  0  0  0  0  0
   32.1239   34.9223   58.0636 C   0  0  0  0  0  0  0  0  0  0  0  0
   32.4246   36.1067   58.7277 C   0  0  0  0  0  0  0  0  0  0  0  0
   28.7323   35.6557   61.8773 H   0  0  0  0  0  0  0  0  0  0  0  0
   27.9152   36.8708   62.8892 H   0  0  0  0  0  0  0  0  0  0  0  0
   27.6023   36.8152   61.1378 H   0  0  0  0  0  0  0  0  0  0  0  0
   29.6030   39.0111   63.8792 H   0  0  0  0  0  0  0  0  0  0  0  0
   31.4489   38.9412   65.4790 H   0  0  0  0  0  0  0  0  0  0  0  0
   34.5138   36.7660   65.1604 H   0  0  0  0  0  0  0  0  0  0  0  0
   33.4293   35.9994   63.0533 H   0  0  0  0  0  0  0  0  0  0  0  0
   32.1308   34.9250   61.3126 H   0  0  0  0  0  0  0  0  0  0  0  0
   30.5510   35.5806   60.8199 H   0  0  0  0  0  0  0  0  0  0  0  0
   33.9086   37.7643   56.1527 H   0  0  0  0  0  0  0  0  0  0  0  0
   33.3736   35.6665   55.0281 H   0  0  0  0  0  0  0  0  0  0  0  0
   32.2378   33.8519   56.2364 H   0  0  0  0  0  0  0  0  0  0  0  0
   31.6251   34.1198   58.5867 H   0  0  0  0  0  0  0  0  0  0  0  0
  1  2  1  0  0  0  0
  1 21  1  0  0  0  0
  1 22  1  0  0  0  0
  1 23  1  0  0  0  0
  2  3  1  0  0  0  0
  3 10  2  0  0  0  0
  3  4  1  0  0  0  0
  4  5  2  0  0  0  0
  4 24  1  0  0  0  0
  5  6  1  0  0  0  0
  5 25  1  0  0  0  0
  6  7  1  0  0  0  0
  6  9  2  0  0  0  0
  7  8  2  0  0  0  0
  7 26  1  0  0  0  0
  9 10  1  0  0  0  0
  9 27  1  0  0  0  0
 10 11  1  0  0  0  0
 11 12  1  0  0  0  0
 11 28  1  0  0  0  0
 11 29  1  0  0  0  0
 12 20  1  0  0  0  0
 12 13  1  0  0  0  0
 13 14  2  0  0  0  0
 14 15  1  0  0  0  0
 15 20  2  0  0  0  0
 15 16  1  0  0  0  0
 16 17  2  0  0  0  0
 16 30  1  0  0  0  0
 17 18  1  0  0  0  0
 17 31  1  0  0  0  0
 18 19  2  0  0  0  0
 18 32  1  0  0  0  0
 19 20  1  0  0  0  0
 19 33  1  0  0  0  0
M  END
$$$$
