ZINC000000017891      none
 OpenBabel11202420153D

 27 28  0  0  0  0  0  0  0  0999 V2000
   32.4554   34.6362   56.4425 C   0  0  0  0  0  0  0  0  0  0  0  0
   33.6122   35.4796   56.9824 C   0  0  0  0  0  0  0  0  0  0  0  0
   33.1292   36.8264   57.2975 N   0  0  0  0  0  0  0  0  0  0  0  0
   32.6314   37.1406   58.5567 C   0  0  0  0  0  0  0  0  0  0  0  0
   32.0472   36.2057   59.2921 N   0  0  0  0  0  0  0  0  0  0  0  0
   31.5664   36.5113   60.4850 C   0  0  0  0  0  0  0  0  0  0  0  0
   31.6716   37.8069   60.9659 C   0  0  0  0  0  0  0  0  0  0  0  0
   31.1149   38.1477   62.3242 C   0  0  0  0  0  0  0  0  0  0  0  0
   32.2540   38.7431   60.2446 N   0  0  0  0  0  0  0  0  0  0  0  0
   32.7492   38.4511   59.0425 C   0  0  0  0  0  0  0  0  0  0  0  0
   33.4150   39.5073   58.2568 C   0  0  0  0  0  0  0  0  0  0  0  0
   33.8202   40.6542   58.9051 N   0  0  0  0  0  0  0  0  0  0  0  0
   33.6365   39.4041   56.9816 N   0  0  0  0  0  0  0  0  0  0  0  0
   33.1602   38.0449   56.1650 S   0  0  0  0  0  0  0  0  0  0  0  0
   34.2049   37.7291   55.2550 O   0  0  0  0  0  0  0  0  0  0  0  0
   31.8142   38.2645   55.7657 O   0  0  0  0  0  0  0  0  0  0  0  0
   32.8148   33.6342   56.2081 H   0  0  0  0  0  0  0  0  0  0  0  0
   31.6693   34.5736   57.1951 H   0  0  0  0  0  0  0  0  0  0  0  0
   32.0579   35.1002   55.5398 H   0  0  0  0  0  0  0  0  0  0  0  0
   34.0096   35.0158   57.8852 H   0  0  0  0  0  0  0  0  0  0  0  0
   34.3982   35.5423   56.2299 H   0  0  0  0  0  0  0  0  0  0  0  0
   31.0907   35.7502   61.0858 H   0  0  0  0  0  0  0  0  0  0  0  0
   31.8851   37.9973   63.0807 H   0  0  0  0  0  0  0  0  0  0  0  0
   30.7940   39.1894   62.3345 H   0  0  0  0  0  0  0  0  0  0  0  0
   30.2629   37.5030   62.5399 H   0  0  0  0  0  0  0  0  0  0  0  0
   33.6656   40.7533   59.8576 H   0  0  0  0  0  0  0  0  0  0  0  0
   34.2601   41.3622   58.4090 H   0  0  0  0  0  0  0  0  0  0  0  0
  1  2  1  0  0  0  0
  1 17  1  0  0  0  0
  1 18  1  0  0  0  0
  1 19  1  0  0  0  0
  2  3  1  0  0  0  0
  2 20  1  0  0  0  0
  2 21  1  0  0  0  0
  3 14  1  0  0  0  0
  3  4  1  0  0  0  0
  4 10  2  0  0  0  0
  4  5  1  0  0  0  0
  5  6  2  0  0  0  0
  6  7  1  0  0  0  0
  6 22  1  0  0  0  0
  7  8  1  0  0  0  0
  7  9  2  0  0  0  0
  8 23  1  0  0  0  0
  8 24  1  0  0  0  0
  8 25  1  0  0  0  0
  9 10  1  0  0  0  0
 10 11  1  0  0  0  0
 11 12  1  0  0  0  0
 11 13  2  0  0  0  0
 12 26  1  0  0  0  0
 12 27  1  0  0  0  0
 13 14  1  0  0  0  0
 14 15  2  0  0  0  0
 14 16  2  0  0  0  0
M  END
$$$$
