ZINC000000009223      none
 OpenBabel11202420153D

 38 38  0  0  1  0  0  0  0  0999 V2000
   30.3720   37.8476   68.2559 C   0  0  0  0  0  0  0  0  0  0  0  0
   30.3947   37.5704   66.8309 O   0  0  0  0  0  0  0  0  0  0  0  0
   29.3179   36.9601   66.3114 C   0  0  0  0  0  0  0  0  0  0  0  0
   28.3871   36.6672   67.0239 O   0  0  0  0  0  0  0  0  0  0  0  0
   29.2698   36.6405   64.8395 C   0  0  1  0  0  0  0  0  0  0  0  0
   28.3312   36.1486   64.5839 H   0  0  0  0  0  0  0  0  0  0  0  0
   29.4640   37.9256   63.9924 C   0  0  0  0  0  0  0  0  0  0  0  0
   30.0483   37.3418   62.6763 C   0  0  0  0  0  0  0  0  0  0  0  0
   30.8581   38.4075   61.9351 C   0  0  0  0  0  0  0  0  0  0  0  0
   28.9258   36.8101   61.7828 C   0  0  0  0  0  0  0  0  0  0  0  0
   30.9282   36.2360   63.1104 N   0  0  0  0  0  0  0  0  0  0  0  0
   30.9219   35.2647   62.2405 O   0  0  0  0  0  0  0  0  0  0  0  0
   31.9521   34.4050   62.2794 C   0  0  0  0  0  0  0  0  0  0  0  0
   32.0130   33.2572   61.3047 C   0  0  0  0  0  0  0  0  0  0  0  0
   32.8306   34.5514   63.0959 O   0  0  0  0  0  0  0  0  0  0  0  0
   30.4733   35.7650   64.4316 C   0  0  0  0  0  0  0  0  0  0  0  0
   31.5998   35.9192   65.4553 C   0  0  0  0  0  0  0  0  0  0  0  0
   30.0451   34.2986   64.3460 C   0  0  0  0  0  0  0  0  0  0  0  0
   29.5277   38.4973   68.4862 H   0  0  0  0  0  0  0  0  0  0  0  0
   30.2714   36.9121   68.8065 H   0  0  0  0  0  0  0  0  0  0  0  0
   31.2999   38.3412   68.5450 H   0  0  0  0  0  0  0  0  0  0  0  0
   28.5108   38.4231   63.8134 H   0  0  0  0  0  0  0  0  0  0  0  0
   30.1730   38.6033   64.4680 H   0  0  0  0  0  0  0  0  0  0  0  0
   31.3068   37.9683   61.0441 H   0  0  0  0  0  0  0  0  0  0  0  0
   30.2007   39.2268   61.6446 H   0  0  0  0  0  0  0  0  0  0  0  0
   31.6441   38.7864   62.5885 H   0  0  0  0  0  0  0  0  0  0  0  0
   28.4009   36.0061   62.2986 H   0  0  0  0  0  0  0  0  0  0  0  0
   28.2266   37.6158   61.5594 H   0  0  0  0  0  0  0  0  0  0  0  0
   29.3504   36.4294   60.8539 H   0  0  0  0  0  0  0  0  0  0  0  0
   32.5454   33.5709   60.4068 H   0  0  0  0  0  0  0  0  0  0  0  0
   32.5367   32.4185   61.7633 H   0  0  0  0  0  0  0  0  0  0  0  0
   31.0007   32.9522   61.0392 H   0  0  0  0  0  0  0  0  0  0  0  0
   31.2789   35.5098   66.4132 H   0  0  0  0  0  0  0  0  0  0  0  0
   32.4824   35.3820   65.1080 H   0  0  0  0  0  0  0  0  0  0  0  0
   31.8408   36.9756   65.5741 H   0  0  0  0  0  0  0  0  0  0  0  0
   29.2554   34.1936   63.6021 H   0  0  0  0  0  0  0  0  0  0  0  0
   30.8998   33.6868   64.0576 H   0  0  0  0  0  0  0  0  0  0  0  0
   29.6751   33.9710   65.3176 H   0  0  0  0  0  0  0  0  0  0  0  0
  1  2  1  0  0  0  0
  1 19  1  0  0  0  0
  1 20  1  0  0  0  0
  1 21  1  0  0  0  0
  2  3  1  0  0  0  0
  3  4  2  0  0  0  0
  3  5  1  0  0  0  0
  5  6  1  6  0  0  0
  5 16  1  0  0  0  0
  5  7  1  0  0  0  0
  7  8  1  0  0  0  0
  7 22  1  0  0  0  0
  7 23  1  0  0  0  0
  8  9  1  0  0  0  0
  8 10  1  0  0  0  0
  8 11  1  0  0  0  0
  9 24  1  0  0  0  0
  9 25  1  0  0  0  0
  9 26  1  0  0  0  0
 10 27  1  0  0  0  0
 10 28  1  0  0  0  0
 10 29  1  0  0  0  0
 11 12  1  0  0  0  0
 11 16  1  0  0  0  0
 12 13  1  0  0  0  0
 13 14  1  0  0  0  0
 13 15  2  0  0  0  0
 14 30  1  0  0  0  0
 14 31  1  0  0  0  0
 14 32  1  0  0  0  0
 16 17  1  0  0  0  0
 16 18  1  0  0  0  0
 17 33  1  0  0  0  0
 17 34  1  0  0  0  0
 17 35  1  0  0  0  0
 18 36  1  0  0  0  0
 18 37  1  0  0  0  0
 18 38  1  0  0  0  0
M  END
$$$$
