ZINC000000036686      none
 OpenBabel11202420153D

 27 28  0  0  0  0  0  0  0  0999 V2000
   28.7379   36.4447   61.8377 O   0  0  0  0  0  0  0  0  0  0  0  0
   29.7654   37.3990   62.0679 S   0  0  0  0  0  0  0  0  0  0  0  0
   29.5156   38.7906   62.2105 O   0  0  0  0  0  0  0  0  0  0  0  0
   30.9069   37.2322   60.7361 C   0  0  0  0  0  0  0  0  0  0  0  0
   31.7231   38.2923   60.3885 C   0  0  0  0  0  0  0  0  0  0  0  0
   32.6220   38.1598   59.3467 C   0  0  0  0  0  0  0  0  0  0  0  0
   32.6976   36.9706   58.6460 C   0  0  0  0  0  0  0  0  0  0  0  0
   31.8774   35.9124   58.9900 C   0  0  0  0  0  0  0  0  0  0  0  0
   30.9821   36.0432   60.0351 C   0  0  0  0  0  0  0  0  0  0  0  0
   30.5977   36.8899   63.5351 C   0  0  0  0  0  0  0  0  0  0  0  0
   31.6112   37.6683   64.0598 C   0  0  0  0  0  0  0  0  0  0  0  0
   32.2666   37.2674   65.2143 C   0  0  0  0  0  0  0  0  0  0  0  0
   33.2639   38.0338   65.7311 O   0  0  0  0  0  0  0  0  0  0  0  0
   31.9044   36.0846   65.8422 C   0  0  0  0  0  0  0  0  0  0  0  0
   30.8874   35.3093   65.3209 C   0  0  0  0  0  0  0  0  0  0  0  0
   30.2356   35.7075   64.1629 C   0  0  0  0  0  0  0  0  0  0  0  0
   29.2381   34.9413   63.6463 O   0  0  0  0  0  0  0  0  0  0  0  0
   31.6611   39.2229   60.9333 H   0  0  0  0  0  0  0  0  0  0  0  0
   33.2626   38.9867   59.0779 H   0  0  0  0  0  0  0  0  0  0  0  0
   33.3973   36.8683   57.8297 H   0  0  0  0  0  0  0  0  0  0  0  0
   31.9361   34.9834   58.4423 H   0  0  0  0  0  0  0  0  0  0  0  0
   30.3413   35.2164   60.3038 H   0  0  0  0  0  0  0  0  0  0  0  0
   31.8933   38.5890   63.5707 H   0  0  0  0  0  0  0  0  0  0  0  0
   33.6604   37.6730   66.5359 H   0  0  0  0  0  0  0  0  0  0  0  0
   32.4146   35.7726   66.7415 H   0  0  0  0  0  0  0  0  0  0  0  0
   30.6024   34.3908   65.8123 H   0  0  0  0  0  0  0  0  0  0  0  0
   29.0573   34.1373   64.1523 H   0  0  0  0  0  0  0  0  0  0  0  0
  1  2  2  0  0  0  0
  2  3  2  0  0  0  0
  2  4  1  0  0  0  0
  2 10  1  0  0  0  0
  4  9  2  0  0  0  0
  4  5  1  0  0  0  0
  5  6  2  0  0  0  0
  5 18  1  0  0  0  0
  6  7  1  0  0  0  0
  6 19  1  0  0  0  0
  7  8  2  0  0  0  0
  7 20  1  0  0  0  0
  8  9  1  0  0  0  0
  8 21  1  0  0  0  0
  9 22  1  0  0  0  0
 10 16  2  0  0  0  0
 10 11  1  0  0  0  0
 11 12  2  0  0  0  0
 11 23  1  0  0  0  0
 12 13  1  0  0  0  0
 12 14  1  0  0  0  0
 13 24  1  0  0  0  0
 14 15  2  0  0  0  0
 14 25  1  0  0  0  0
 15 16  1  0  0  0  0
 15 26  1  0  0  0  0
 16 17  1  0  0  0  0
 17 27  1  0  0  0  0
M  END
$$$$
