ZINC000000021664      none
 OpenBabel11202420153D

 35 36  0  0  0  0  0  0  0  0999 V2000
   31.2727   34.3845   61.5934 C   0  0  0  0  0  0  0  0  0  0  0  0
   31.3821   35.7950   61.7948 O   0  0  0  0  0  0  0  0  0  0  0  0
   31.8079   36.5384   60.7385 C   0  0  0  0  0  0  0  0  0  0  0  0
   31.9393   37.9182   60.8575 C   0  0  0  0  0  0  0  0  0  0  0  0
   32.3488   38.6593   59.8503 N   0  0  0  0  0  0  0  0  0  0  0  0
   32.6563   38.1297   58.6740 C   0  0  0  0  0  0  0  0  0  0  0  0
   32.5478   36.7399   58.4794 C   0  0  0  0  0  0  0  0  0  0  0  0
   32.1153   35.9293   59.5320 C   0  0  0  0  0  0  0  0  0  0  0  0
   32.9602   36.4866   57.0978 C   0  0  0  0  0  0  0  0  0  0  0  0
   33.0165   35.1472   56.4091 C   0  0  0  0  0  0  0  0  0  0  0  0
   33.5016   35.3338   54.9700 C   0  0  0  0  0  0  0  0  0  0  0  0
   33.5563   34.0319   54.3006 N   0  0  0  0  0  0  0  0  0  0  0  0
   34.6852   33.2971   54.3471 C   0  0  0  0  0  0  0  0  0  0  0  0
   34.7414   31.9578   53.6586 C   0  0  0  0  0  0  0  0  0  0  0  0
   35.6558   33.7137   54.9432 O   0  0  0  0  0  0  0  0  0  0  0  0
   33.2710   37.6762   56.5591 C   0  0  0  0  0  0  0  0  0  0  0  0
   33.0984   38.6677   57.4870 N   0  0  0  0  0  0  0  0  0  0  0  0
   33.3480   40.0919   57.2514 C   0  0  0  0  0  0  0  0  0  0  0  0
   30.5627   34.1862   60.7904 H   0  0  0  0  0  0  0  0  0  0  0  0
   32.2481   33.9793   61.3243 H   0  0  0  0  0  0  0  0  0  0  0  0
   30.9238   33.9123   62.5117 H   0  0  0  0  0  0  0  0  0  0  0  0
   31.6992   38.3920   61.7978 H   0  0  0  0  0  0  0  0  0  0  0  0
   32.0229   34.8603   59.4092 H   0  0  0  0  0  0  0  0  0  0  0  0
   33.7056   34.4929   56.9430 H   0  0  0  0  0  0  0  0  0  0  0  0
   32.0225   34.7001   56.4024 H   0  0  0  0  0  0  0  0  0  0  0  0
   32.8124   35.9882   54.4362 H   0  0  0  0  0  0  0  0  0  0  0  0
   34.4956   35.7809   54.9768 H   0  0  0  0  0  0  0  0  0  0  0  0
   32.7800   33.6987   53.8238 H   0  0  0  0  0  0  0  0  0  0  0  0
   34.5566   32.0893   52.5924 H   0  0  0  0  0  0  0  0  0  0  0  0
   35.7267   31.5152   53.8045 H   0  0  0  0  0  0  0  0  0  0  0  0
   33.9815   31.3000   54.0806 H   0  0  0  0  0  0  0  0  0  0  0  0
   33.6114   37.8279   55.5454 H   0  0  0  0  0  0  0  0  0  0  0  0
   34.3830   40.3256   57.5011 H   0  0  0  0  0  0  0  0  0  0  0  0
   33.1662   40.3239   56.2019 H   0  0  0  0  0  0  0  0  0  0  0  0
   32.6805   40.6859   57.8756 H   0  0  0  0  0  0  0  0  0  0  0  0
  1  2  1  0  0  0  0
  1 19  1  0  0  0  0
  1 20  1  0  0  0  0
  1 21  1  0  0  0  0
  2  3  1  0  0  0  0
  3  8  2  0  0  0  0
  3  4  1  0  0  0  0
  4  5  2  0  0  0  0
  4 22  1  0  0  0  0
  5  6  1  0  0  0  0
  6 17  1  0  0  0  0
  6  7  2  0  0  0  0
  7  8  1  0  0  0  0
  7  9  1  0  0  0  0
  8 23  1  0  0  0  0
  9 10  1  0  0  0  0
  9 16  2  0  0  0  0
 10 11  1  0  0  0  0
 10 24  1  0  0  0  0
 10 25  1  0  0  0  0
 11 12  1  0  0  0  0
 11 26  1  0  0  0  0
 11 27  1  0  0  0  0
 12 13  1  0  0  0  0
 12 28  1  0  0  0  0
 13 14  1  0  0  0  0
 13 15  2  0  0  0  0
 14 29  1  0  0  0  0
 14 30  1  0  0  0  0
 14 31  1  0  0  0  0
 16 17  1  0  0  0  0
 16 32  1  0  0  0  0
 17 18  1  0  0  0  0
 18 33  1  0  0  0  0
 18 34  1  0  0  0  0
 18 35  1  0  0  0  0
M  END
$$$$
