ZINC000000033249      none
 OpenBabel11202420153D

 31 33  0  0  0  0  0  0  0  0999 V2000
   31.8505   35.2366   61.5924 C   0  0  0  0  0  0  0  0  0  0  0  0
   31.0214   35.7440   60.4908 N   0  0  0  0  0  0  0  0  0  0  0  0
   29.8363   36.4444   61.0034 C   0  0  0  0  0  0  0  0  0  0  0  0
   31.7559   36.5608   59.6544 C   0  0  0  0  0  0  0  0  0  0  0  0
   31.8151   37.8535   59.8940 N   0  0  0  0  0  0  0  0  0  0  0  0
   32.5285   38.6445   59.0817 C   0  0  0  0  0  0  0  0  0  0  0  0
   32.8217   39.9194   58.9856 N   0  0  0  0  0  0  0  0  0  0  0  0
   33.5347   40.0913   58.0189 O   0  0  0  0  0  0  0  0  0  0  0  0
   33.8148   39.1017   57.3748 N   0  0  0  0  0  0  0  0  0  0  0  0
   33.2427   38.0564   57.9233 C   0  0  0  0  0  0  0  0  0  0  0  0
   33.1736   36.7376   57.7001 N   0  0  0  0  0  0  0  0  0  0  0  0
   32.4633   35.9782   58.5072 C   0  0  0  0  0  0  0  0  0  0  0  0
   32.3870   34.6186   58.2757 N   0  0  0  0  0  0  0  0  0  0  0  0
   33.0620   34.0560   57.1895 C   0  0  0  0  0  0  0  0  0  0  0  0
   34.3693   33.6092   57.3376 C   0  0  0  0  0  0  0  0  0  0  0  0
   35.0320   33.0483   56.2639 C   0  0  0  0  0  0  0  0  0  0  0  0
   34.3983   32.9358   55.0398 C   0  0  0  0  0  0  0  0  0  0  0  0
   33.0984   33.3851   54.8865 C   0  0  0  0  0  0  0  0  0  0  0  0
   32.3073   33.2428   53.3479 Cl  0  0  0  0  0  0  0  0  0  0  0  0
   32.4295   33.9476   55.9576 C   0  0  0  0  0  0  0  0  0  0  0  0
   32.2360   36.0748   62.1727 H   0  0  0  0  0  0  0  0  0  0  0  0
   31.2474   34.5961   62.2358 H   0  0  0  0  0  0  0  0  0  0  0  0
   32.6831   34.6625   61.1859 H   0  0  0  0  0  0  0  0  0  0  0  0
   29.1922   36.7262   60.1703 H   0  0  0  0  0  0  0  0  0  0  0  0
   29.2895   35.7869   61.6792 H   0  0  0  0  0  0  0  0  0  0  0  0
   30.1478   37.3402   61.5408 H   0  0  0  0  0  0  0  0  0  0  0  0
   31.8650   34.0545   58.8673 H   0  0  0  0  0  0  0  0  0  0  0  0
   34.8653   33.6967   58.2930 H   0  0  0  0  0  0  0  0  0  0  0  0
   36.0465   32.6966   56.3803 H   0  0  0  0  0  0  0  0  0  0  0  0
   34.9189   32.4966   54.2019 H   0  0  0  0  0  0  0  0  0  0  0  0
   31.4151   34.2983   55.8379 H   0  0  0  0  0  0  0  0  0  0  0  0
  1  2  1  0  0  0  0
  1 21  1  0  0  0  0
  1 22  1  0  0  0  0
  1 23  1  0  0  0  0
  2  3  1  0  0  0  0
  2  4  1  0  0  0  0
  3 24  1  0  0  0  0
  3 25  1  0  0  0  0
  3 26  1  0  0  0  0
  4 12  1  0  0  0  0
  4  5  2  0  0  0  0
  5  6  1  0  0  0  0
  6 10  1  0  0  0  0
  6  7  2  0  0  0  0
  7  8  1  0  0  0  0
  8  9  1  0  0  0  0
  9 10  2  0  0  0  0
 10 11  1  0  0  0  0
 11 12  2  0  0  0  0
 12 13  1  0  0  0  0
 13 14  1  0  0  0  0
 13 27  1  0  0  0  0
 14 20  2  0  0  0  0
 14 15  1  0  0  0  0
 15 16  2  0  0  0  0
 15 28  1  0  0  0  0
 16 17  1  0  0  0  0
 16 29  1  0  0  0  0
 17 18  2  0  0  0  0
 17 30  1  0  0  0  0
 18 19  1  0  0  0  0
 18 20  1  0  0  0  0
 20 31  1  0  0  0  0
M  END
$$$$
