ZINC000000032706      none
 OpenBabel11202420153D

 42 45  0  0  0  0  0  0  0  0999 V2000
   31.2675   36.6992   68.2867 O   0  0  0  0  0  0  0  0  0  0  0  0
   31.1243   37.8094   67.8108 C   0  0  0  0  0  0  0  0  0  0  0  0
   32.3007   38.5878   67.3924 C   0  0  0  0  0  0  0  0  0  0  0  0
   32.6890   39.8278   67.8694 C   0  0  0  0  0  0  0  0  0  0  0  0
   33.8573   40.1431   67.1720 C   0  0  0  0  0  0  0  0  0  0  0  0
   34.6615   41.3756   67.3310 N   0  0  0  0  0  0  0  0  0  0  0  0
   34.3182   42.2278   68.1306 O   0  0  0  0  0  0  0  0  0  0  0  0
   35.6666   41.5374   66.6624 O   0  0  0  0  0  0  0  0  0  0  0  0
   34.1120   39.1577   66.3493 N   0  0  0  0  0  0  0  0  0  0  0  0
   33.2253   38.2341   66.4509 N   0  0  0  0  0  0  0  0  0  0  0  0
   33.2081   36.9912   65.6757 C   0  0  0  0  0  0  0  0  0  0  0  0
   32.4238   37.2019   64.4062 C   0  0  0  0  0  0  0  0  0  0  0  0
   32.2742   36.1636   63.5059 C   0  0  0  0  0  0  0  0  0  0  0  0
   31.5507   36.3555   62.3437 C   0  0  0  0  0  0  0  0  0  0  0  0
   30.9857   37.5885   62.0769 C   0  0  0  0  0  0  0  0  0  0  0  0
   31.1398   38.6282   62.9747 C   0  0  0  0  0  0  0  0  0  0  0  0
   31.8588   38.4349   64.1394 C   0  0  0  0  0  0  0  0  0  0  0  0
   29.8881   38.3264   67.6663 N   0  0  0  0  0  0  0  0  0  0  0  0
   29.5903   39.6480   67.1079 C   0  0  0  0  0  0  0  0  0  0  0  0
   28.0584   39.7699   67.1556 C   0  0  0  0  0  0  0  0  0  0  0  0
   27.5916   38.4636   67.7578 C   0  0  0  0  0  0  0  0  0  0  0  0
   26.3218   38.0005   68.0443 C   0  0  0  0  0  0  0  0  0  0  0  0
   26.1491   36.7479   68.6026 C   0  0  0  0  0  0  0  0  0  0  0  0
   27.2512   35.9582   68.8753 C   0  0  0  0  0  0  0  0  0  0  0  0
   28.5199   36.4161   68.5917 C   0  0  0  0  0  0  0  0  0  0  0  0
   28.7026   37.6803   68.0272 C   0  0  0  0  0  0  0  0  0  0  0  0
   32.1948   40.4239   68.6223 H   0  0  0  0  0  0  0  0  0  0  0  0
   34.2297   36.7032   65.4281 H   0  0  0  0  0  0  0  0  0  0  0  0
   32.7408   36.2020   66.2648 H   0  0  0  0  0  0  0  0  0  0  0  0
   32.7194   35.2015   63.7122 H   0  0  0  0  0  0  0  0  0  0  0  0
   31.4307   35.5433   61.6420 H   0  0  0  0  0  0  0  0  0  0  0  0
   30.4242   37.7398   61.1668 H   0  0  0  0  0  0  0  0  0  0  0  0
   30.6986   39.5917   62.7661 H   0  0  0  0  0  0  0  0  0  0  0  0
   31.9795   39.2474   64.8407 H   0  0  0  0  0  0  0  0  0  0  0  0
   29.9427   39.7116   66.0784 H   0  0  0  0  0  0  0  0  0  0  0  0
   30.0508   40.4275   67.7149 H   0  0  0  0  0  0  0  0  0  0  0  0
   27.6550   39.8908   66.1504 H   0  0  0  0  0  0  0  0  0  0  0  0
   27.7632   40.6071   67.7881 H   0  0  0  0  0  0  0  0  0  0  0  0
   25.4619   38.6185   67.8311 H   0  0  0  0  0  0  0  0  0  0  0  0
   25.1560   36.3870   68.8262 H   0  0  0  0  0  0  0  0  0  0  0  0
   27.1174   34.9794   69.3115 H   0  0  0  0  0  0  0  0  0  0  0  0
   29.3766   35.7944   68.8067 H   0  0  0  0  0  0  0  0  0  0  0  0
  1  2  2  0  0  0  0
  2  3  1  0  0  0  0
  2 18  1  0  0  0  0
  3 10  1  0  0  0  0
  3  4  2  0  0  0  0
  4  5  1  0  0  0  0
  4 27  1  0  0  0  0
  5  6  1  0  0  0  0
  5  9  2  0  0  0  0
  6  7  2  0  0  0  0
  6  8  2  0  0  0  0
  9 10  1  0  0  0  0
 10 11  1  0  0  0  0
 11 12  1  0  0  0  0
 11 28  1  0  0  0  0
 11 29  1  0  0  0  0
 12 17  2  0  0  0  0
 12 13  1  0  0  0  0
 13 14  2  0  0  0  0
 13 30  1  0  0  0  0
 14 15  1  0  0  0  0
 14 31  1  0  0  0  0
 15 16  2  0  0  0  0
 15 32  1  0  0  0  0
 16 17  1  0  0  0  0
 16 33  1  0  0  0  0
 17 34  1  0  0  0  0
 18 26  1  0  0  0  0
 18 19  1  0  0  0  0
 19 20  1  0  0  0  0
 19 35  1  0  0  0  0
 19 36  1  0  0  0  0
 20 21  1  0  0  0  0
 20 37  1  0  0  0  0
 20 38  1  0  0  0  0
 21 26  2  0  0  0  0
 21 22  1  0  0  0  0
 22 23  2  0  0  0  0
 22 39  1  0  0  0  0
 23 24  1  0  0  0  0
 23 40  1  0  0  0  0
 24 25  2  0  0  0  0
 24 41  1  0  0  0  0
 25 26  1  0  0  0  0
 25 42  1  0  0  0  0
M  END
$$$$
