ZINC000000038258      none
 OpenBabel11202420153D

 51 52  0  0  0  0  0  0  0  0999 V2000
   33.0450   39.9824   57.0202 C   0  0  0  0  0  0  0  0  0  0  0  0
   33.7090   39.1583   57.9804 O   0  0  0  0  0  0  0  0  0  0  0  0
   32.9587   38.2124   58.6062 C   0  0  0  0  0  0  0  0  0  0  0  0
   32.3035   38.5161   59.7887 C   0  0  0  0  0  0  0  0  0  0  0  0
   31.5362   37.5552   60.4203 C   0  0  0  0  0  0  0  0  0  0  0  0
   31.4298   36.2867   59.8808 C   0  0  0  0  0  0  0  0  0  0  0  0
   30.5971   35.2412   60.5768 C   0  0  0  0  0  0  0  0  0  0  0  0
   31.4727   34.4647   61.5623 C   0  0  0  0  0  0  0  0  0  0  0  0
   32.0271   35.3881   62.5554 N   0  0  0  0  0  0  0  0  0  0  0  0
   31.7542   35.2141   63.8638 C   0  0  0  0  0  0  0  0  0  0  0  0
   31.0496   34.2930   64.2189 O   0  0  0  0  0  0  0  0  0  0  0  0
   32.3243   36.1641   64.8853 C   0  0  0  0  0  0  0  0  0  0  0  0
   31.3909   37.2795   65.0913 N   0  0  0  0  0  0  0  0  0  0  0  0
   30.2448   36.8625   65.9092 C   0  0  0  0  0  0  0  0  0  0  0  0
   29.2263   38.0025   65.9810 C   0  0  0  0  0  0  0  0  0  0  0  0
   29.8920   39.2375   66.5941 C   0  0  0  0  0  0  0  0  0  0  0  0
   28.8969   40.3995   66.6141 C   0  0  0  0  0  0  0  0  0  0  0  0
   31.1108   39.6220   65.7506 C   0  0  0  0  0  0  0  0  0  0  0  0
   32.0749   38.4352   65.6854 C   0  0  0  0  0  0  0  0  0  0  0  0
   32.0809   35.9771   58.7014 C   0  0  0  0  0  0  0  0  0  0  0  0
   32.8470   36.9373   58.0602 C   0  0  0  0  0  0  0  0  0  0  0  0
   33.4887   36.6341   56.9001 O   0  0  0  0  0  0  0  0  0  0  0  0
   33.3288   35.3057   56.3982 C   0  0  0  0  0  0  0  0  0  0  0  0
   32.2346   40.5256   57.5063 H   0  0  0  0  0  0  0  0  0  0  0  0
   33.7557   40.6923   56.5971 H   0  0  0  0  0  0  0  0  0  0  0  0
   32.6381   39.3580   56.2249 H   0  0  0  0  0  0  0  0  0  0  0  0
   32.3882   39.5052   60.2143 H   0  0  0  0  0  0  0  0  0  0  0  0
   31.0221   37.7947   61.3395 H   0  0  0  0  0  0  0  0  0  0  0  0
   30.1847   34.5541   59.8380 H   0  0  0  0  0  0  0  0  0  0  0  0
   29.7833   35.7251   61.1170 H   0  0  0  0  0  0  0  0  0  0  0  0
   32.2864   33.9809   61.0221 H   0  0  0  0  0  0  0  0  0  0  0  0
   30.8705   33.7084   62.0657 H   0  0  0  0  0  0  0  0  0  0  0  0
   32.5906   36.1249   62.2713 H   0  0  0  0  0  0  0  0  0  0  0  0
   33.2792   36.5505   64.5290 H   0  0  0  0  0  0  0  0  0  0  0  0
   32.4743   35.6372   65.8276 H   0  0  0  0  0  0  0  0  0  0  0  0
   29.7779   35.9859   65.4601 H   0  0  0  0  0  0  0  0  0  0  0  0
   30.5865   36.6171   66.9147 H   0  0  0  0  0  0  0  0  0  0  0  0
   28.8739   38.2394   64.9770 H   0  0  0  0  0  0  0  0  0  0  0  0
   28.3829   37.6984   66.6009 H   0  0  0  0  0  0  0  0  0  0  0  0
   30.2099   39.0125   67.6122 H   0  0  0  0  0  0  0  0  0  0  0  0
   28.5779   40.6223   65.5960 H   0  0  0  0  0  0  0  0  0  0  0  0
   28.0297   40.1250   67.2148 H   0  0  0  0  0  0  0  0  0  0  0  0
   29.3741   41.2791   67.0461 H   0  0  0  0  0  0  0  0  0  0  0  0
   31.6139   40.4750   66.2060 H   0  0  0  0  0  0  0  0  0  0  0  0
   30.7885   39.8850   64.7431 H   0  0  0  0  0  0  0  0  0  0  0  0
   32.4080   38.1822   66.6918 H   0  0  0  0  0  0  0  0  0  0  0  0
   32.9369   38.7010   65.0736 H   0  0  0  0  0  0  0  0  0  0  0  0
   31.9929   34.9866   58.2799 H   0  0  0  0  0  0  0  0  0  0  0  0
   32.2728   35.1139   56.2078 H   0  0  0  0  0  0  0  0  0  0  0  0
   33.8908   35.1977   55.4706 H   0  0  0  0  0  0  0  0  0  0  0  0
   33.7007   34.5923   57.1337 H   0  0  0  0  0  0  0  0  0  0  0  0
  1  2  1  0  0  0  0
  1 24  1  0  0  0  0
  1 25  1  0  0  0  0
  1 26  1  0  0  0  0
  2  3  1  0  0  0  0
  3 21  2  0  0  0  0
  3  4  1  0  0  0  0
  4  5  2  0  0  0  0
  4 27  1  0  0  0  0
  5  6  1  0  0  0  0
  5 28  1  0  0  0  0
  6  7  1  0  0  0  0
  6 20  2  0  0  0  0
  7  8  1  0  0  0  0
  7 29  1  0  0  0  0
  7 30  1  0  0  0  0
  8  9  1  0  0  0  0
  8 31  1  0  0  0  0
  8 32  1  0  0  0  0
  9 10  1  0  0  0  0
  9 33  1  0  0  0  0
 10 11  2  0  0  0  0
 10 12  1  0  0  0  0
 12 13  1  0  0  0  0
 12 34  1  0  0  0  0
 12 35  1  0  0  0  0
 13 19  1  0  0  0  0
 13 14  1  0  0  0  0
 14 15  1  0  0  0  0
 14 36  1  0  0  0  0
 14 37  1  0  0  0  0
 15 16  1  0  0  0  0
 15 38  1  0  0  0  0
 15 39  1  0  0  0  0
 16 17  1  0  0  0  0
 16 18  1  0  0  0  0
 16 40  1  0  0  0  0
 17 41  1  0  0  0  0
 17 42  1  0  0  0  0
 17 43  1  0  0  0  0
 18 19  1  0  0  0  0
 18 44  1  0  0  0  0
 18 45  1  0  0  0  0
 19 46  1  0  0  0  0
 19 47  1  0  0  0  0
 20 21  1  0  0  0  0
 20 48  1  0  0  0  0
 21 22  1  0  0  0  0
 22 23  1  0  0  0  0
 23 49  1  0  0  0  0
 23 50  1  0  0  0  0
 23 51  1  0  0  0  0
M  END
$$$$
