ZINC000000052892      none
 OpenBabel11202420153D

 42 44  0  0  1  0  0  0  0  0999 V2000
   29.9213   33.9412   64.0749 C   0  0  0  0  0  0  0  0  0  0  0  0
   30.7216   34.3311   62.8591 C   0  0  0  0  0  0  0  0  0  0  0  0
   31.5580   33.5513   62.1703 O   0  0  0  0  0  0  0  0  0  0  0  0
   32.0712   34.1102   61.2322 N   0  0  0  0  0  0  0  0  0  0  0  0
   31.6830   35.3559   61.1287 C   0  0  0  0  0  0  0  0  0  0  0  0
   32.0999   36.3485   60.1088 C   0  0  0  0  0  0  0  0  0  0  0  0
   32.1330   37.7054   60.4257 C   0  0  0  0  0  0  0  0  0  0  0  0
   32.5268   38.6241   59.4745 C   0  0  0  0  0  0  0  0  0  0  0  0
   32.8781   38.2024   58.2044 C   0  0  0  0  0  0  0  0  0  0  0  0
   32.8421   36.8585   57.8814 C   0  0  0  0  0  0  0  0  0  0  0  0
   32.4550   35.9284   58.8272 C   0  0  0  0  0  0  0  0  0  0  0  0
   32.4101   34.2412   58.4208 Cl  0  0  0  0  0  0  0  0  0  0  0  0
   30.7342   35.5575   62.2438 C   0  0  0  0  0  0  0  0  0  0  0  0
   29.9873   36.7742   62.6056 C   0  0  0  0  0  0  0  0  0  0  0  0
   28.8840   36.9732   62.1340 O   0  0  0  0  0  0  0  0  0  0  0  0
   30.5264   37.6670   63.4592 N   0  0  0  0  0  0  0  0  0  0  0  0
   29.7962   38.8884   63.8251 C   0  0  0  0  0  0  0  0  0  0  0  0
   29.7162   38.9693   65.3572 C   0  0  0  0  0  0  0  0  0  0  0  0
   31.1282   38.8829   65.9412 C   0  0  1  0  0  0  0  0  0  0  0  0
   31.0587   38.9991   67.4420 C   0  0  0  0  0  0  0  0  0  0  0  0
   32.1888   38.9502   68.1748 N   0  0  0  0  0  0  0  0  0  0  0  0
   29.9858   39.1366   67.9906 O   0  0  0  0  0  0  0  0  0  0  0  0
   31.7574   37.5402   65.5623 C   0  0  0  0  0  0  0  0  0  0  0  0
   31.8581   37.4404   64.0370 C   0  0  0  0  0  0  0  0  0  0  0  0
   28.9526   33.5513   63.7626 H   0  0  0  0  0  0  0  0  0  0  0  0
   30.4587   33.1746   64.6332 H   0  0  0  0  0  0  0  0  0  0  0  0
   29.7736   34.8157   64.7087 H   0  0  0  0  0  0  0  0  0  0  0  0
   31.8549   38.0368   61.4153 H   0  0  0  0  0  0  0  0  0  0  0  0
   32.5566   39.6753   59.7206 H   0  0  0  0  0  0  0  0  0  0  0  0
   33.1820   38.9259   57.4623 H   0  0  0  0  0  0  0  0  0  0  0  0
   33.1174   36.5350   56.8885 H   0  0  0  0  0  0  0  0  0  0  0  0
   30.3240   39.7597   63.4374 H   0  0  0  0  0  0  0  0  0  0  0  0
   28.7903   38.8519   63.4068 H   0  0  0  0  0  0  0  0  0  0  0  0
   29.1143   38.1436   65.7367 H   0  0  0  0  0  0  0  0  0  0  0  0
   29.2600   39.9158   65.6469 H   0  0  0  0  0  0  0  0  0  0  0  0
   31.7363   39.6945   65.5419 H   0  0  0  0  0  0  0  0  0  0  0  0
   33.0468   38.8402   67.7361 H   0  0  0  0  0  0  0  0  0  0  0  0
   32.1440   39.0250   69.1408 H   0  0  0  0  0  0  0  0  0  0  0  0
   31.1363   36.7280   65.9398 H   0  0  0  0  0  0  0  0  0  0  0  0
   32.7540   37.4692   65.9981 H   0  0  0  0  0  0  0  0  0  0  0  0
   32.2132   36.4481   63.7584 H   0  0  0  0  0  0  0  0  0  0  0  0
   32.5513   38.1945   63.6644 H   0  0  0  0  0  0  0  0  0  0  0  0
  1  2  1  0  0  0  0
  1 25  1  0  0  0  0
  1 26  1  0  0  0  0
  1 27  1  0  0  0  0
  2 13  2  0  0  0  0
  2  3  1  0  0  0  0
  3  4  1  0  0  0  0
  4  5  2  0  0  0  0
  5  6  1  0  0  0  0
  5 13  1  0  0  0  0
  6 11  2  0  0  0  0
  6  7  1  0  0  0  0
  7  8  2  0  0  0  0
  7 28  1  0  0  0  0
  8  9  1  0  0  0  0
  8 29  1  0  0  0  0
  9 10  2  0  0  0  0
  9 30  1  0  0  0  0
 10 11  1  0  0  0  0
 10 31  1  0  0  0  0
 11 12  1  0  0  0  0
 13 14  1  0  0  0  0
 14 15  2  0  0  0  0
 14 16  1  0  0  0  0
 16 24  1  0  0  0  0
 16 17  1  0  0  0  0
 17 18  1  0  0  0  0
 17 32  1  0  0  0  0
 17 33  1  0  0  0  0
 18 19  1  0  0  0  0
 18 34  1  0  0  0  0
 18 35  1  0  0  0  0
 19 20  1  0  0  0  0
 19 23  1  0  0  0  0
 19 36  1  6  0  0  0
 20 21  1  0  0  0  0
 20 22  2  0  0  0  0
 21 37  1  0  0  0  0
 21 38  1  0  0  0  0
 23 24  1  0  0  0  0
 23 39  1  0  0  0  0
 23 40  1  0  0  0  0
 24 41  1  0  0  0  0
 24 42  1  0  0  0  0
M  END
$$$$
