ZINC000000016708      none
 OpenBabel11202420153D

 42 43  0  0  0  0  0  0  0  0999 V2000
   30.9546   35.0312   62.4061 C   0  0  0  0  0  0  0  0  0  0  0  0
   31.4416   36.4162   62.4573 N   0  0  0  0  0  0  0  0  0  0  0  0
   32.2342   36.7400   61.2635 C   0  0  0  0  0  0  0  0  0  0  0  0
   31.2947   37.0593   60.0988 C   0  0  0  0  0  0  0  0  0  0  0  0
   32.1077   37.3915   58.8742 C   0  0  0  0  0  0  0  0  0  0  0  0
   32.4781   38.6996   58.6243 C   0  0  0  0  0  0  0  0  0  0  0  0
   33.2280   39.0036   57.5036 C   0  0  0  0  0  0  0  0  0  0  0  0
   33.5987   38.0010   56.6271 C   0  0  0  0  0  0  0  0  0  0  0  0
   33.2238   36.6936   56.8742 C   0  0  0  0  0  0  0  0  0  0  0  0
   32.4784   36.3888   57.9977 C   0  0  0  0  0  0  0  0  0  0  0  0
   32.2139   36.6577   63.6832 C   0  0  0  0  0  0  0  0  0  0  0  0
   31.2550   36.8976   64.8511 C   0  0  0  0  0  0  0  0  0  0  0  0
   32.2086   37.1959   66.3651 S   0  0  0  0  0  0  0  0  0  0  0  0
   33.5917   37.3255   66.0658 O   0  0  0  0  0  0  0  0  0  0  0  0
   31.7622   36.3445   67.4114 O   0  0  0  0  0  0  0  0  0  0  0  0
   31.7224   38.8092   66.8803 C   0  0  0  0  0  0  0  0  0  0  0  0
   32.4209   39.9162   66.4353 C   0  0  0  0  0  0  0  0  0  0  0  0
   32.0369   41.1825   66.8342 C   0  0  0  0  0  0  0  0  0  0  0  0
   30.9595   41.3413   67.6891 C   0  0  0  0  0  0  0  0  0  0  0  0
   30.5874   42.5784   68.0848 F   0  0  0  0  0  0  0  0  0  0  0  0
   30.2643   40.2316   68.1387 C   0  0  0  0  0  0  0  0  0  0  0  0
   30.6462   38.9668   67.7336 C   0  0  0  0  0  0  0  0  0  0  0  0
   30.3134   34.8396   63.2664 H   0  0  0  0  0  0  0  0  0  0  0  0
   30.3862   34.8797   61.4884 H   0  0  0  0  0  0  0  0  0  0  0  0
   31.8026   34.3469   62.4253 H   0  0  0  0  0  0  0  0  0  0  0  0
   32.8645   37.6049   61.4696 H   0  0  0  0  0  0  0  0  0  0  0  0
   32.8611   35.8877   61.0014 H   0  0  0  0  0  0  0  0  0  0  0  0
   30.6643   36.1943   59.8928 H   0  0  0  0  0  0  0  0  0  0  0  0
   30.6678   37.9116   60.3609 H   0  0  0  0  0  0  0  0  0  0  0  0
   32.1847   39.4836   59.3068 H   0  0  0  0  0  0  0  0  0  0  0  0
   33.5205   40.0251   57.3103 H   0  0  0  0  0  0  0  0  0  0  0  0
   34.1807   38.2390   55.7491 H   0  0  0  0  0  0  0  0  0  0  0  0
   33.5131   35.9103   56.1893 H   0  0  0  0  0  0  0  0  0  0  0  0
   32.1853   35.3674   58.1906 H   0  0  0  0  0  0  0  0  0  0  0  0
   32.8471   37.5344   63.5472 H   0  0  0  0  0  0  0  0  0  0  0  0
   32.8369   35.7893   63.8972 H   0  0  0  0  0  0  0  0  0  0  0  0
   30.6218   36.0209   64.9873 H   0  0  0  0  0  0  0  0  0  0  0  0
   30.6320   37.7660   64.6372 H   0  0  0  0  0  0  0  0  0  0  0  0
   33.2644   39.7916   65.7725 H   0  0  0  0  0  0  0  0  0  0  0  0
   32.5802   42.0473   66.4831 H   0  0  0  0  0  0  0  0  0  0  0  0
   29.4239   40.3544   68.8059 H   0  0  0  0  0  0  0  0  0  0  0  0
   30.1041   38.1010   68.0841 H   0  0  0  0  0  0  0  0  0  0  0  0
  1  2  1  0  0  0  0
  1 23  1  0  0  0  0
  1 24  1  0  0  0  0
  1 25  1  0  0  0  0
  2  3  1  0  0  0  0
  2 11  1  0  0  0  0
  3  4  1  0  0  0  0
  3 26  1  0  0  0  0
  3 27  1  0  0  0  0
  4  5  1  0  0  0  0
  4 28  1  0  0  0  0
  4 29  1  0  0  0  0
  5 10  2  0  0  0  0
  5  6  1  0  0  0  0
  6  7  2  0  0  0  0
  6 30  1  0  0  0  0
  7  8  1  0  0  0  0
  7 31  1  0  0  0  0
  8  9  2  0  0  0  0
  8 32  1  0  0  0  0
  9 10  1  0  0  0  0
  9 33  1  0  0  0  0
 10 34  1  0  0  0  0
 11 12  1  0  0  0  0
 11 35  1  0  0  0  0
 11 36  1  0  0  0  0
 12 13  1  0  0  0  0
 12 37  1  0  0  0  0
 12 38  1  0  0  0  0
 13 14  2  0  0  0  0
 13 15  2  0  0  0  0
 13 16  1  0  0  0  0
 16 22  2  0  0  0  0
 16 17  1  0  0  0  0
 17 18  2  0  0  0  0
 17 39  1  0  0  0  0
 18 19  1  0  0  0  0
 18 40  1  0  0  0  0
 19 20  1  0  0  0  0
 19 21  2  0  0  0  0
 21 22  1  0  0  0  0
 21 41  1  0  0  0  0
 22 42  1  0  0  0  0
M  END
$$$$
