ZINC000000014994      none
 OpenBabel11202420153D

 44 46  0  0  0  0  0  0  0  0999 V2000
   30.1705   36.9942   59.4606 O   0  0  0  0  0  0  0  0  0  0  0  0
   31.1244   36.3455   59.8177 C   0  0  0  0  0  0  0  0  0  0  0  0
   32.0742   35.7765   58.7954 C   0  0  0  0  0  0  0  0  0  0  0  0
   32.6777   36.8988   57.9909 C   0  0  0  0  0  0  0  0  0  0  0  0
   33.0571   36.6820   56.6793 C   0  0  0  0  0  0  0  0  0  0  0  0
   33.6054   37.7119   55.9388 C   0  0  0  0  0  0  0  0  0  0  0  0
   33.7857   38.9581   56.5146 C   0  0  0  0  0  0  0  0  0  0  0  0
   34.3276   39.9639   55.7936 F   0  0  0  0  0  0  0  0  0  0  0  0
   33.4107   39.1726   57.8301 C   0  0  0  0  0  0  0  0  0  0  0  0
   32.8568   38.1427   58.5668 C   0  0  0  0  0  0  0  0  0  0  0  0
   31.3650   36.1050   61.2858 C   0  0  0  0  0  0  0  0  0  0  0  0
   30.0260   36.0896   62.0280 C   0  0  0  0  0  0  0  0  0  0  0  0
   30.2802   35.9058   63.5259 C   0  0  0  0  0  0  0  0  0  0  0  0
   31.1208   37.0042   64.0191 N   0  0  0  0  0  0  0  0  0  0  0  0
   31.2716   36.9371   65.4788 C   0  0  0  0  0  0  0  0  0  0  0  0
   31.6944   38.2855   66.0026 C   0  0  0  0  0  0  0  0  0  0  0  0
   33.0367   38.6113   66.1226 C   0  0  0  0  0  0  0  0  0  0  0  0
   33.3864   39.8593   66.6023 C   0  0  0  0  0  0  0  0  0  0  0  0
   32.4609   40.7308   66.9533 N   0  0  0  0  0  0  0  0  0  0  0  0
   31.1753   40.4532   66.8579 C   0  0  0  0  0  0  0  0  0  0  0  0
   30.7502   39.2275   66.3815 C   0  0  0  0  0  0  0  0  0  0  0  0
   32.4303   37.0104   63.3545 C   0  0  0  0  0  0  0  0  0  0  0  0
   32.2401   37.2270   61.8515 C   0  0  0  0  0  0  0  0  0  0  0  0
   32.8667   35.2260   59.3025 H   0  0  0  0  0  0  0  0  0  0  0  0
   31.5323   35.1037   58.1309 H   0  0  0  0  0  0  0  0  0  0  0  0
   32.9210   35.7084   56.2319 H   0  0  0  0  0  0  0  0  0  0  0  0
   33.8979   37.5434   54.9129 H   0  0  0  0  0  0  0  0  0  0  0  0
   33.5512   40.1441   58.2803 H   0  0  0  0  0  0  0  0  0  0  0  0
   32.5642   38.3098   59.5929 H   0  0  0  0  0  0  0  0  0  0  0  0
   31.8682   35.1475   61.4204 H   0  0  0  0  0  0  0  0  0  0  0  0
   29.4151   35.2658   61.6587 H   0  0  0  0  0  0  0  0  0  0  0  0
   29.5060   37.0328   61.8601 H   0  0  0  0  0  0  0  0  0  0  0  0
   30.7878   34.9561   63.6942 H   0  0  0  0  0  0  0  0  0  0  0  0
   29.3294   35.9088   64.0586 H   0  0  0  0  0  0  0  0  0  0  0  0
   30.3206   36.6540   65.9297 H   0  0  0  0  0  0  0  0  0  0  0  0
   32.0290   36.1953   65.7321 H   0  0  0  0  0  0  0  0  0  0  0  0
   33.7992   37.9003   65.8410 H   0  0  0  0  0  0  0  0  0  0  0  0
   34.4297   40.1226   66.6942 H   0  0  0  0  0  0  0  0  0  0  0  0
   30.4462   41.1924   67.1551 H   0  0  0  0  0  0  0  0  0  0  0  0
   29.6958   39.0064   66.3050 H   0  0  0  0  0  0  0  0  0  0  0  0
   33.0411   37.8154   63.7631 H   0  0  0  0  0  0  0  0  0  0  0  0
   32.9279   36.0554   63.5235 H   0  0  0  0  0  0  0  0  0  0  0  0
   31.7549   38.1879   61.6810 H   0  0  0  0  0  0  0  0  0  0  0  0
   33.2111   37.2167   61.3566 H   0  0  0  0  0  0  0  0  0  0  0  0
  1  2  2  0  0  0  0
  2  3  1  0  0  0  0
  2 11  1  0  0  0  0
  3  4  1  0  0  0  0
  3 24  1  0  0  0  0
  3 25  1  0  0  0  0
  4 10  2  0  0  0  0
  4  5  1  0  0  0  0
  5  6  2  0  0  0  0
  5 26  1  0  0  0  0
  6  7  1  0  0  0  0
  6 27  1  0  0  0  0
  7  8  1  0  0  0  0
  7  9  2  0  0  0  0
  9 10  1  0  0  0  0
  9 28  1  0  0  0  0
 10 29  1  0  0  0  0
 11 23  1  0  0  0  0
 11 12  1  0  0  0  0
 11 30  1  0  0  0  0
 12 13  1  0  0  0  0
 12 31  1  0  0  0  0
 12 32  1  0  0  0  0
 13 14  1  0  0  0  0
 13 33  1  0  0  0  0
 13 34  1  0  0  0  0
 14 15  1  0  0  0  0
 14 22  1  0  0  0  0
 15 16  1  0  0  0  0
 15 35  1  0  0  0  0
 15 36  1  0  0  0  0
 16 21  2  0  0  0  0
 16 17  1  0  0  0  0
 17 18  2  0  0  0  0
 17 37  1  0  0  0  0
 18 19  1  0  0  0  0
 18 38  1  0  0  0  0
 19 20  2  0  0  0  0
 20 21  1  0  0  0  0
 20 39  1  0  0  0  0
 21 40  1  0  0  0  0
 22 23  1  0  0  0  0
 22 41  1  0  0  0  0
 22 42  1  0  0  0  0
 23 43  1  0  0  0  0
 23 44  1  0  0  0  0
M  END
$$$$
