ZINC000000002070      none
 OpenBabel11202420153D

 26 28  0  0  1  0  0  0  0  0999 V2000
   35.4630   37.5079   51.8500 O   0  0  0  0  0  0  0  0  0  0  0  0
   34.7822   36.8243   52.5892 C   0  0  0  0  0  0  0  0  0  0  0  0
   33.5300   36.4434   52.3079 N   0  0  0  0  0  0  0  0  0  0  0  0
   33.0048   35.6923   53.2980 C   0  0  0  0  0  0  0  0  0  0  0  0
   31.8973   35.2010   53.3380 O   0  0  0  0  0  0  0  0  0  0  0  0
   34.0889   35.5919   54.3462 C   0  0  2  0  0  0  0  0  0  0  0  0
   34.4977   34.1362   54.5502 C   0  0  0  0  0  0  0  0  0  0  0  0
   33.4026   33.4378   55.3682 C   0  0  0  0  0  0  0  0  0  0  0  0
   33.3406   34.0503   56.6567 O   0  0  0  0  0  0  0  0  0  0  0  0
   33.2731   35.4059   56.7185 C   0  0  0  0  0  0  0  0  0  0  0  0
   32.8414   35.9985   57.9003 C   0  0  0  0  0  0  0  0  0  0  0  0
   32.7670   37.3724   58.0025 C   0  0  0  0  0  0  0  0  0  0  0  0
   33.1232   38.1656   56.9247 C   0  0  0  0  0  0  0  0  0  0  0  0
   33.0533   39.5112   57.0232 F   0  0  0  0  0  0  0  0  0  0  0  0
   33.5451   37.5790   55.7457 C   0  0  0  0  0  0  0  0  0  0  0  0
   33.6249   36.2005   55.6399 C   0  0  0  0  0  0  0  0  0  0  0  0
   35.2026   36.3652   53.7835 N   0  0  0  0  0  0  0  0  0  0  0  0
   33.0588   36.6782   51.4931 H   0  0  0  0  0  0  0  0  0  0  0  0
   34.6032   33.6452   53.5828 H   0  0  0  0  0  0  0  0  0  0  0  0
   35.4437   34.0925   55.0900 H   0  0  0  0  0  0  0  0  0  0  0  0
   32.4426   33.5474   54.8638 H   0  0  0  0  0  0  0  0  0  0  0  0
   33.6425   32.3798   55.4733 H   0  0  0  0  0  0  0  0  0  0  0  0
   32.5637   35.3807   58.7415 H   0  0  0  0  0  0  0  0  0  0  0  0
   32.4317   37.8288   58.9221 H   0  0  0  0  0  0  0  0  0  0  0  0
   33.8182   38.1992   54.9047 H   0  0  0  0  0  0  0  0  0  0  0  0
   36.0699   36.5156   54.1912 H   0  0  0  0  0  0  0  0  0  0  0  0
  1  2  2  0  0  0  0
  2 17  1  0  0  0  0
  2  3  1  0  0  0  0
  3  4  1  0  0  0  0
  3 18  1  0  0  0  0
  4  5  2  0  0  0  0
  6  4  1  6  0  0  0
  6 16  1  0  0  0  0
  6  7  1  0  0  0  0
  6 17  1  0  0  0  0
  7  8  1  0  0  0  0
  7 19  1  0  0  0  0
  7 20  1  0  0  0  0
  8  9  1  0  0  0  0
  8 21  1  0  0  0  0
  8 22  1  0  0  0  0
  9 10  1  0  0  0  0
 10 16  2  0  0  0  0
 10 11  1  0  0  0  0
 11 12  2  0  0  0  0
 11 23  1  0  0  0  0
 12 13  1  0  0  0  0
 12 24  1  0  0  0  0
 13 14  1  0  0  0  0
 13 15  2  0  0  0  0
 15 16  1  0  0  0  0
 15 25  1  0  0  0  0
 17 26  1  0  0  0  0
M  END
$$$$
