ZINC000000013147      none
 OpenBabel11202420153D

 33 34  0  0  0  0  0  0  0  0999 V2000
   33.1034   36.1896   56.0849 C   0  0  0  0  0  0  0  0  0  0  0  0
   32.6884   37.2576   57.0641 C   0  0  0  0  0  0  0  0  0  0  0  0
   32.2976   36.9179   58.3445 C   0  0  0  0  0  0  0  0  0  0  0  0
   31.9223   37.9420   59.2163 C   0  0  0  0  0  0  0  0  0  0  0  0
   31.5228   37.6530   60.5110 N   0  0  0  0  0  0  0  0  0  0  0  0
   32.6256   37.0657   61.2836 C   0  0  0  0  0  0  0  0  0  0  0  0
   32.2017   36.9293   62.7499 C   0  0  0  0  0  0  0  0  0  0  0  0
   30.9372   36.1802   62.8029 N   0  0  0  0  0  0  0  0  0  0  0  0
   30.7688   34.8660   63.7965 S   0  0  0  0  0  0  0  0  0  0  0  0
   31.2898   33.4585   62.7778 C   0  0  0  0  0  0  0  0  0  0  0  0
   31.7018   35.0965   64.8433 O   0  0  0  0  0  0  0  0  0  0  0  0
   29.3738   34.8020   64.0595 O   0  0  0  0  0  0  0  0  0  0  0  0
   29.8264   36.6286   61.9497 C   0  0  0  0  0  0  0  0  0  0  0  0
   30.3436   36.7769   60.5149 C   0  0  0  0  0  0  0  0  0  0  0  0
   31.9549   39.1993   58.7840 N   0  0  0  0  0  0  0  0  0  0  0  0
   32.3347   39.4777   57.5536 C   0  0  0  0  0  0  0  0  0  0  0  0
   32.6995   38.5344   56.7085 N   0  0  0  0  0  0  0  0  0  0  0  0
   32.2304   35.8472   55.5293 H   0  0  0  0  0  0  0  0  0  0  0  0
   33.8380   36.5985   55.3913 H   0  0  0  0  0  0  0  0  0  0  0  0
   33.5416   35.3510   56.6260 H   0  0  0  0  0  0  0  0  0  0  0  0
   32.2822   35.8862   58.6632 H   0  0  0  0  0  0  0  0  0  0  0  0
   32.8675   36.0817   60.8817 H   0  0  0  0  0  0  0  0  0  0  0  0
   33.5010   37.7116   61.2165 H   0  0  0  0  0  0  0  0  0  0  0  0
   32.0594   37.9191   63.1834 H   0  0  0  0  0  0  0  0  0  0  0  0
   32.9701   36.3906   63.3045 H   0  0  0  0  0  0  0  0  0  0  0  0
   32.3235   33.6008   62.4628 H   0  0  0  0  0  0  0  0  0  0  0  0
   31.2101   32.5400   63.3591 H   0  0  0  0  0  0  0  0  0  0  0  0
   30.6486   33.3890   61.8989 H   0  0  0  0  0  0  0  0  0  0  0  0
   29.4556   37.5896   62.3063 H   0  0  0  0  0  0  0  0  0  0  0  0
   29.0217   35.8937   61.9747 H   0  0  0  0  0  0  0  0  0  0  0  0
   29.5642   37.2133   59.8904 H   0  0  0  0  0  0  0  0  0  0  0  0
   30.6172   35.7970   60.1234 H   0  0  0  0  0  0  0  0  0  0  0  0
   32.3514   40.5079   57.2296 H   0  0  0  0  0  0  0  0  0  0  0  0
  1  2  1  0  0  0  0
  1 18  1  0  0  0  0
  1 19  1  0  0  0  0
  1 20  1  0  0  0  0
  2 17  2  0  0  0  0
  2  3  1  0  0  0  0
  3  4  2  0  0  0  0
  3 21  1  0  0  0  0
  4  5  1  0  0  0  0
  4 15  1  0  0  0  0
  5 14  1  0  0  0  0
  5  6  1  0  0  0  0
  6  7  1  0  0  0  0
  6 22  1  0  0  0  0
  6 23  1  0  0  0  0
  7  8  1  0  0  0  0
  7 24  1  0  0  0  0
  7 25  1  0  0  0  0
  8  9  1  0  0  0  0
  8 13  1  0  0  0  0
  9 10  1  0  0  0  0
  9 11  2  0  0  0  0
  9 12  2  0  0  0  0
 10 26  1  0  0  0  0
 10 27  1  0  0  0  0
 10 28  1  0  0  0  0
 13 14  1  0  0  0  0
 13 29  1  0  0  0  0
 13 30  1  0  0  0  0
 14 31  1  0  0  0  0
 14 32  1  0  0  0  0
 15 16  2  0  0  0  0
 16 17  1  0  0  0  0
 16 33  1  0  0  0  0
M  END
$$$$
