ZINC000000038255      none
 OpenBabel11202420153D

 39 41  0  0  1  0  0  0  0  0999 V2000
   29.0144   33.3145   66.1635 O   0  0  0  0  0  0  0  0  0  0  0  0
   29.7381   34.2927   66.2731 C   0  0  0  0  0  0  0  0  0  0  0  0
   30.6678   34.3953   67.3378 C   0  0  0  0  0  0  0  0  0  0  0  0
   31.4516   35.4894   67.4188 C   0  0  0  0  0  0  0  0  0  0  0  0
   32.4438   35.6094   68.5467 C   0  0  0  0  0  0  0  0  0  0  0  0
   32.3594   34.4520   69.3805 O   0  0  0  0  0  0  0  0  0  0  0  0
   31.3624   36.4700   66.5132 O   0  0  0  0  0  0  0  0  0  0  0  0
   30.4987   36.4170   65.4898 C   0  0  0  0  0  0  0  0  0  0  0  0
   30.4451   37.5539   64.5021 C   0  0  1  0  0  0  0  0  0  0  0  0
   29.4457   37.9891   64.5029 H   0  0  0  0  0  0  0  0  0  0  0  0
   31.4234   38.5765   64.8812 N   0  0  0  0  0  0  0  0  0  0  0  0
   31.0557   39.6043   65.7322 C   0  0  0  0  0  0  0  0  0  0  0  0
   31.9529   40.5207   66.0649 N   0  0  0  0  0  0  0  0  0  0  0  0
   31.6325   41.5188   66.8716 C   0  0  0  0  0  0  0  0  0  0  0  0
   30.3446   41.5919   67.3785 C   0  0  0  0  0  0  0  0  0  0  0  0
   29.4328   40.6136   67.0145 C   0  0  0  0  0  0  0  0  0  0  0  0
   29.8165   39.6451   66.1992 N   0  0  0  0  0  0  0  0  0  0  0  0
   30.7669   37.0374   63.1236 C   0  0  0  0  0  0  0  0  0  0  0  0
   30.2115   37.6431   62.0119 C   0  0  0  0  0  0  0  0  0  0  0  0
   30.5097   37.1733   60.7469 C   0  0  0  0  0  0  0  0  0  0  0  0
   31.3569   36.0888   60.5937 C   0  0  0  0  0  0  0  0  0  0  0  0
   31.6453   35.6258   59.3577 F   0  0  0  0  0  0  0  0  0  0  0  0
   31.9083   35.4797   61.7080 C   0  0  0  0  0  0  0  0  0  0  0  0
   31.6128   35.9546   62.9718 C   0  0  0  0  0  0  0  0  0  0  0  0
   29.6751   35.3575   65.3323 C   0  0  0  0  0  0  0  0  0  0  0  0
   28.8007   35.3098   64.2907 O   0  0  0  0  0  0  0  0  0  0  0  0
   30.7472   33.6088   68.0738 H   0  0  0  0  0  0  0  0  0  0  0  0
   33.4510   35.6898   68.1375 H   0  0  0  0  0  0  0  0  0  0  0  0
   32.2189   36.4986   69.1354 H   0  0  0  0  0  0  0  0  0  0  0  0
   31.4889   34.3173   69.7795 H   0  0  0  0  0  0  0  0  0  0  0  0
   32.3288   38.5333   64.5357 H   0  0  0  0  0  0  0  0  0  0  0  0
   32.3668   42.2656   67.1354 H   0  0  0  0  0  0  0  0  0  0  0  0
   30.0576   42.3941   68.0424 H   0  0  0  0  0  0  0  0  0  0  0  0
   28.4212   40.6418   67.3916 H   0  0  0  0  0  0  0  0  0  0  0  0
   29.5474   38.4863   62.1318 H   0  0  0  0  0  0  0  0  0  0  0  0
   30.0789   37.6493   59.8784 H   0  0  0  0  0  0  0  0  0  0  0  0
   32.5690   34.6336   61.5897 H   0  0  0  0  0  0  0  0  0  0  0  0
   32.0433   35.4798   63.8411 H   0  0  0  0  0  0  0  0  0  0  0  0
   29.1047   35.7765   63.5002 H   0  0  0  0  0  0  0  0  0  0  0  0
  1  2  2  0  0  0  0
  2 25  1  0  0  0  0
  2  3  1  0  0  0  0
  3  4  2  0  0  0  0
  3 27  1  0  0  0  0
  4  5  1  0  0  0  0
  4  7  1  0  0  0  0
  5  6  1  0  0  0  0
  5 28  1  0  0  0  0
  5 29  1  0  0  0  0
  6 30  1  0  0  0  0
  7  8  1  0  0  0  0
  8  9  1  0  0  0  0
  8 25  2  0  0  0  0
  9 10  1  1  0  0  0
  9 11  1  0  0  0  0
  9 18  1  0  0  0  0
 11 12  1  0  0  0  0
 11 31  1  0  0  0  0
 12 17  2  0  0  0  0
 12 13  1  0  0  0  0
 13 14  2  0  0  0  0
 14 15  1  0  0  0  0
 14 32  1  0  0  0  0
 15 16  2  0  0  0  0
 15 33  1  0  0  0  0
 16 17  1  0  0  0  0
 16 34  1  0  0  0  0
 18 24  2  0  0  0  0
 18 19  1  0  0  0  0
 19 20  2  0  0  0  0
 19 35  1  0  0  0  0
 20 21  1  0  0  0  0
 20 36  1  0  0  0  0
 21 22  1  0  0  0  0
 21 23  2  0  0  0  0
 23 24  1  0  0  0  0
 23 37  1  0  0  0  0
 24 38  1  0  0  0  0
 25 26  1  0  0  0  0
 26 39  1  0  0  0  0
M  END
$$$$
