ZINC000000055361      none
 OpenBabel11202420153D

 30 32  0  0  0  0  0  0  0  0999 V2000
   31.6865   38.6433   65.2267 C   0  0  0  0  0  0  0  0  0  0  0  0
   31.2222   37.9389   63.9781 C   0  0  0  0  0  0  0  0  0  0  0  0
   30.4125   38.4695   63.0327 C   0  0  0  0  0  0  0  0  0  0  0  0
   30.2323   37.4933   62.0440 C   0  0  0  0  0  0  0  0  0  0  0  0
   30.9541   36.3839   62.4509 C   0  0  0  0  0  0  0  0  0  0  0  0
   31.0574   35.1618   61.7603 C   0  0  0  0  0  0  0  0  0  0  0  0
   31.5877   35.1320   60.4794 C   0  0  0  0  0  0  0  0  0  0  0  0
   32.0514   36.1888   59.7537 N   0  0  0  0  0  0  0  0  0  0  0  0
   32.4706   35.7595   58.5949 C   0  0  0  0  0  0  0  0  0  0  0  0
   33.0461   36.6244   57.5466 C   0  0  0  0  0  0  0  0  0  0  0  0
   33.4631   36.0729   56.3326 C   0  0  0  0  0  0  0  0  0  0  0  0
   34.0000   36.8862   55.3574 C   0  0  0  0  0  0  0  0  0  0  0  0
   34.1266   38.2485   55.5788 C   0  0  0  0  0  0  0  0  0  0  0  0
   34.8021   39.2665   54.3455 Cl  0  0  0  0  0  0  0  0  0  0  0  0
   33.7159   38.8021   56.7789 C   0  0  0  0  0  0  0  0  0  0  0  0
   33.1713   38.0001   57.7618 C   0  0  0  0  0  0  0  0  0  0  0  0
   32.6493   38.6968   59.2637 Cl  0  0  0  0  0  0  0  0  0  0  0  0
   32.3169   34.4262   58.4786 O   0  0  0  0  0  0  0  0  0  0  0  0
   31.7687   33.9538   59.6188 C   0  0  0  0  0  0  0  0  0  0  0  0
   31.4849   32.7987   59.8785 O   0  0  0  0  0  0  0  0  0  0  0  0
   31.5456   36.6869   63.6261 O   0  0  0  0  0  0  0  0  0  0  0  0
   32.3279   37.9764   65.8030 H   0  0  0  0  0  0  0  0  0  0  0  0
   32.2456   39.5380   64.9527 H   0  0  0  0  0  0  0  0  0  0  0  0
   30.8219   38.9250   65.8279 H   0  0  0  0  0  0  0  0  0  0  0  0
   29.9875   39.4624   63.0374 H   0  0  0  0  0  0  0  0  0  0  0  0
   29.6448   37.5870   61.1428 H   0  0  0  0  0  0  0  0  0  0  0  0
   30.7236   34.2473   62.2280 H   0  0  0  0  0  0  0  0  0  0  0  0
   33.3654   35.0116   56.1585 H   0  0  0  0  0  0  0  0  0  0  0  0
   34.3228   36.4605   54.4188 H   0  0  0  0  0  0  0  0  0  0  0  0
   33.8172   39.8644   56.9448 H   0  0  0  0  0  0  0  0  0  0  0  0
  1  2  1  0  0  0  0
  1 22  1  0  0  0  0
  1 23  1  0  0  0  0
  1 24  1  0  0  0  0
  2 21  1  0  0  0  0
  2  3  2  0  0  0  0
  3  4  1  0  0  0  0
  3 25  1  0  0  0  0
  4  5  2  0  0  0  0
  4 26  1  0  0  0  0
  5  6  1  0  0  0  0
  5 21  1  0  0  0  0
  6  7  2  0  0  0  0
  6 27  1  0  0  0  0
  7 19  1  0  0  0  0
  7  8  1  0  0  0  0
  8  9  2  0  0  0  0
  9 10  1  0  0  0  0
  9 18  1  0  0  0  0
 10 16  2  0  0  0  0
 10 11  1  0  0  0  0
 11 12  2  0  0  0  0
 11 28  1  0  0  0  0
 12 13  1  0  0  0  0
 12 29  1  0  0  0  0
 13 14  1  0  0  0  0
 13 15  2  0  0  0  0
 15 16  1  0  0  0  0
 15 30  1  0  0  0  0
 16 17  1  0  0  0  0
 18 19  1  0  0  0  0
 19 20  2  0  0  0  0
M  END
$$$$
