ZINC000000040390      none
 OpenBabel11202420153D

 30 31  0  0  1  0  0  0  0  0999 V2000
   34.1076   40.1258   55.9403 C   0  0  0  0  0  0  0  0  0  0  0  0
   33.6153   39.0081   56.8232 C   0  0  0  0  0  0  0  0  0  0  0  0
   33.2282   39.2755   58.1236 C   0  0  0  0  0  0  0  0  0  0  0  0
   32.7767   38.2535   58.9352 C   0  0  0  0  0  0  0  0  0  0  0  0
   32.7176   36.9550   58.4462 C   0  0  0  0  0  0  0  0  0  0  0  0
   32.2661   35.9160   59.2679 N   0  0  0  0  0  0  0  0  0  0  0  0
   31.3630   36.1668   60.2365 C   0  0  0  0  0  0  0  0  0  0  0  0
   30.9408   37.2957   60.3964 O   0  0  0  0  0  0  0  0  0  0  0  0
   30.9280   35.1663   61.0278 N   0  0  0  0  0  0  0  0  0  0  0  0
   29.9465   35.4389   62.0805 C   0  0  2  0  0  0  0  0  0  0  0  0
   28.7702   36.1366   61.5332 N   0  0  0  0  0  0  0  0  0  0  0  0
   28.5479   37.2419   61.9712 N   0  0  0  0  0  0  0  0  0  0  0  0
   29.3101   37.8308   62.9048 C   0  0  0  0  0  0  0  0  0  0  0  0
   29.0911   39.3829   63.5933 S   0  0  0  0  0  0  0  0  0  0  0  0
   30.5961   36.6602   63.2763 S   0  0  0  0  0  0  0  0  0  0  0  0
   33.1024   36.6905   57.1385 C   0  0  0  0  0  0  0  0  0  0  0  0
   33.0343   35.2840   56.6019 C   0  0  0  0  0  0  0  0  0  0  0  0
   33.5522   37.7174   56.3314 C   0  0  0  0  0  0  0  0  0  0  0  0
   35.1876   40.2256   56.0485 H   0  0  0  0  0  0  0  0  0  0  0  0
   33.8657   39.9015   54.9014 H   0  0  0  0  0  0  0  0  0  0  0  0
   33.6254   41.0587   56.2324 H   0  0  0  0  0  0  0  0  0  0  0  0
   33.2787   40.2848   58.5049 H   0  0  0  0  0  0  0  0  0  0  0  0
   32.4742   38.4630   59.9506 H   0  0  0  0  0  0  0  0  0  0  0  0
   32.6030   35.0153   59.1404 H   0  0  0  0  0  0  0  0  0  0  0  0
   31.2650   34.2657   60.9001 H   0  0  0  0  0  0  0  0  0  0  0  0
   29.6554   34.5179   62.5856 H   0  0  0  0  0  0  0  0  0  0  0  0
   33.9795   34.7759   56.7935 H   0  0  0  0  0  0  0  0  0  0  0  0
   32.2257   34.7453   57.0959 H   0  0  0  0  0  0  0  0  0  0  0  0
   32.8488   35.3133   55.5283 H   0  0  0  0  0  0  0  0  0  0  0  0
   33.8553   37.5118   55.3155 H   0  0  0  0  0  0  0  0  0  0  0  0
  1  2  1  0  0  0  0
  1 19  1  0  0  0  0
  1 20  1  0  0  0  0
  1 21  1  0  0  0  0
  2 18  2  0  0  0  0
  2  3  1  0  0  0  0
  3  4  2  0  0  0  0
  3 22  1  0  0  0  0
  4  5  1  0  0  0  0
  4 23  1  0  0  0  0
  5  6  1  0  0  0  0
  5 16  2  0  0  0  0
  6  7  1  0  0  0  0
  6 24  1  0  0  0  0
  7  8  2  0  0  0  0
  7  9  1  0  0  0  0
  9 10  1  0  0  0  0
  9 25  1  0  0  0  0
 10 15  1  0  0  0  0
 10 11  1  0  0  0  0
 10 26  1  1  0  0  0
 11 12  2  0  0  0  0
 12 13  1  0  0  0  0
 13 14  2  0  0  0  0
 13 15  1  0  0  0  0
 16 17  1  0  0  0  0
 16 18  1  0  0  0  0
 17 27  1  0  0  0  0
 17 28  1  0  0  0  0
 17 29  1  0  0  0  0
 18 30  1  0  0  0  0
M  END
$$$$
