ZINC000000032058      none
 OpenBabel11202420153D

 33 36  0  0  0  0  0  0  0  0999 V2000
   33.3024   39.5550   58.3731 O   0  0  0  0  0  0  0  0  0  0  0  0
   32.8318   38.7611   59.1660 C   0  0  0  0  0  0  0  0  0  0  0  0
   32.4567   39.0315   60.4280 N   0  0  0  0  0  0  0  0  0  0  0  0
   31.9654   37.8975   61.0648 C   0  0  0  0  0  0  0  0  0  0  0  0
   31.4762   37.6988   62.3509 C   0  0  0  0  0  0  0  0  0  0  0  0
   31.0415   36.4480   62.7414 C   0  0  0  0  0  0  0  0  0  0  0  0
   31.0861   35.3785   61.8623 C   0  0  0  0  0  0  0  0  0  0  0  0
   31.5682   35.5554   60.5814 C   0  0  0  0  0  0  0  0  0  0  0  0
   32.0092   36.8127   60.1774 C   0  0  0  0  0  0  0  0  0  0  0  0
   32.5684   37.3308   58.9110 C   0  0  0  0  0  0  0  0  0  0  0  0
   32.7896   36.6597   57.7968 N   0  0  0  0  0  0  0  0  0  0  0  0
   33.2868   37.2610   56.7696 N   0  0  0  0  0  0  0  0  0  0  0  0
   33.5075   36.5914   55.6576 C   0  0  0  0  0  0  0  0  0  0  0  0
   34.0715   37.2735   54.4921 C   0  0  0  0  0  0  0  0  0  0  0  0
   34.3069   36.5626   53.3055 C   0  0  0  0  0  0  0  0  0  0  0  0
   34.8374   37.2074   52.2122 C   0  0  0  0  0  0  0  0  0  0  0  0
   35.1415   38.5626   52.2770 C   0  0  0  0  0  0  0  0  0  0  0  0
   34.9095   39.2782   53.4546 C   0  0  0  0  0  0  0  0  0  0  0  0
   34.3783   38.6410   54.5564 C   0  0  0  0  0  0  0  0  0  0  0  0
   35.2889   40.5749   53.2572 O   0  0  0  0  0  0  0  0  0  0  0  0
   35.3701   40.7374   51.8289 C   0  0  0  0  0  0  0  0  0  0  0  0
   35.6649   39.4127   51.3488 O   0  0  0  0  0  0  0  0  0  0  0  0
   32.5243   39.9056   60.8430 H   0  0  0  0  0  0  0  0  0  0  0  0
   31.4361   38.5243   63.0458 H   0  0  0  0  0  0  0  0  0  0  0  0
   30.6625   36.3020   63.7421 H   0  0  0  0  0  0  0  0  0  0  0  0
   30.7428   34.4049   62.1796 H   0  0  0  0  0  0  0  0  0  0  0  0
   31.6038   34.7220   59.8953 H   0  0  0  0  0  0  0  0  0  0  0  0
   33.2722   35.5385   55.6055 H   0  0  0  0  0  0  0  0  0  0  0  0
   34.0720   35.5099   53.2505 H   0  0  0  0  0  0  0  0  0  0  0  0
   35.0142   36.6597   51.2984 H   0  0  0  0  0  0  0  0  0  0  0  0
   34.1992   39.1935   55.4670 H   0  0  0  0  0  0  0  0  0  0  0  0
   34.4183   41.0866   51.4288 H   0  0  0  0  0  0  0  0  0  0  0  0
   36.1710   41.4289   51.5673 H   0  0  0  0  0  0  0  0  0  0  0  0
  1  2  2  0  0  0  0
  2 10  1  0  0  0  0
  2  3  1  0  0  0  0
  3  4  1  0  0  0  0
  3 23  1  0  0  0  0
  4  9  2  0  0  0  0
  4  5  1  0  0  0  0
  5  6  2  0  0  0  0
  5 24  1  0  0  0  0
  6  7  1  0  0  0  0
  6 25  1  0  0  0  0
  7  8  2  0  0  0  0
  7 26  1  0  0  0  0
  8  9  1  0  0  0  0
  8 27  1  0  0  0  0
  9 10  1  0  0  0  0
 10 11  2  0  0  0  0
 11 12  1  0  0  0  0
 12 13  2  0  0  0  0
 13 14  1  0  0  0  0
 13 28  1  0  0  0  0
 14 19  2  0  0  0  0
 14 15  1  0  0  0  0
 15 16  2  0  0  0  0
 15 29  1  0  0  0  0
 16 17  1  0  0  0  0
 16 30  1  0  0  0  0
 17 22  1  0  0  0  0
 17 18  2  0  0  0  0
 18 19  1  0  0  0  0
 18 20  1  0  0  0  0
 19 31  1  0  0  0  0
 20 21  1  0  0  0  0
 21 22  1  0  0  0  0
 21 32  1  0  0  0  0
 21 33  1  0  0  0  0
M  END
$$$$
