ZINC000000034272      none
 OpenBabel11202420153D

 52 53  0  0  1  0  0  0  0  0999 V2000
   33.1533   38.8546   66.8203 C   0  0  0  0  0  0  0  0  0  0  0  0
   31.6898   39.0527   66.4207 C   0  0  0  0  0  0  0  0  0  0  0  0
   31.2999   40.5183   66.6227 C   0  0  0  0  0  0  0  0  0  0  0  0
   30.7988   38.1635   67.2904 C   0  0  0  0  0  0  0  0  0  0  0  0
   31.5164   38.6937   65.0245 O   0  0  0  0  0  0  0  0  0  0  0  0
   31.8183   37.4286   64.6767 C   0  0  0  0  0  0  0  0  0  0  0  0
   32.2158   36.6458   65.5167 O   0  0  0  0  0  0  0  0  0  0  0  0
   31.6798   37.0303   63.3965 N   0  0  0  0  0  0  0  0  0  0  0  0
   31.2101   37.8719   62.2809 C   0  0  0  0  0  0  0  0  0  0  0  0
   31.7992   37.2106   61.0100 C   0  0  0  0  0  0  0  0  0  0  0  0
   31.6938   35.7010   61.3635 C   0  0  0  0  0  0  0  0  0  0  0  0
   31.9712   35.6844   62.8816 C   0  0  2  0  0  0  0  0  0  0  0  0
   33.0165   35.4357   63.0647 H   0  0  0  0  0  0  0  0  0  0  0  0
   31.0786   34.6738   63.5546 C   0  0  0  0  0  0  0  0  0  0  0  0
   30.7315   33.6776   62.9563 O   0  0  0  0  0  0  0  0  0  0  0  0
   30.6661   34.8770   64.8215 N   0  0  0  0  0  0  0  0  0  0  0  0
   29.7984   33.8946   65.4759 C   0  0  0  0  0  0  0  0  0  0  0  0
   28.5105   33.7357   64.6456 C   0  0  0  0  0  0  0  0  0  0  0  0
   27.3665   33.0746   65.4379 C   0  0  0  0  0  0  0  0  0  0  0  0
   27.8412   31.9232   66.2822 C   0  0  0  0  0  0  0  0  0  0  0  0
   28.1382   32.4468   67.7025 C   0  0  0  0  0  0  0  0  0  0  0  0
   29.4330   33.1054   67.7914 C   0  0  0  0  0  0  0  0  0  0  0  0
   29.5235   34.3491   66.8837 C   0  0  0  0  0  0  0  0  0  0  0  0
   33.7880   39.4880   66.2007 H   0  0  0  0  0  0  0  0  0  0  0  0
   33.2836   39.1240   67.8684 H   0  0  0  0  0  0  0  0  0  0  0  0
   33.4311   37.8104   66.6764 H   0  0  0  0  0  0  0  0  0  0  0  0
   30.2572   40.6594   66.3380 H   0  0  0  0  0  0  0  0  0  0  0  0
   31.4301   40.7878   67.6708 H   0  0  0  0  0  0  0  0  0  0  0  0
   31.9346   41.1518   66.0032 H   0  0  0  0  0  0  0  0  0  0  0  0
   31.0766   37.1193   67.1466 H   0  0  0  0  0  0  0  0  0  0  0  0
   30.9290   38.4329   68.3385 H   0  0  0  0  0  0  0  0  0  0  0  0
   29.7562   38.3045   67.0058 H   0  0  0  0  0  0  0  0  0  0  0  0
   30.1209   37.8721   62.2384 H   0  0  0  0  0  0  0  0  0  0  0  0
   31.5865   38.8892   62.3885 H   0  0  0  0  0  0  0  0  0  0  0  0
   31.1998   37.4496   60.1316 H   0  0  0  0  0  0  0  0  0  0  0  0
   32.8386   37.5042   60.8628 H   0  0  0  0  0  0  0  0  0  0  0  0
   32.4469   35.1234   60.8276 H   0  0  0  0  0  0  0  0  0  0  0  0
   30.6934   35.3244   61.1502 H   0  0  0  0  0  0  0  0  0  0  0  0
   30.9437   35.6737   65.3000 H   0  0  0  0  0  0  0  0  0  0  0  0
   30.3168   32.9363   65.5096 H   0  0  0  0  0  0  0  0  0  0  0  0
   28.1837   34.7205   64.3117 H   0  0  0  0  0  0  0  0  0  0  0  0
   28.7296   33.1235   63.7706 H   0  0  0  0  0  0  0  0  0  0  0  0
   26.6155   32.7113   64.7364 H   0  0  0  0  0  0  0  0  0  0  0  0
   26.9086   33.8219   66.0860 H   0  0  0  0  0  0  0  0  0  0  0  0
   28.7490   31.5020   65.8501 H   0  0  0  0  0  0  0  0  0  0  0  0
   27.0656   31.1589   66.3286 H   0  0  0  0  0  0  0  0  0  0  0  0
   27.3610   33.1562   67.9867 H   0  0  0  0  0  0  0  0  0  0  0  0
   28.1201   31.6083   68.3986 H   0  0  0  0  0  0  0  0  0  0  0  0
   29.6043   33.4089   68.8241 H   0  0  0  0  0  0  0  0  0  0  0  0
   30.2095   32.3984   67.4998 H   0  0  0  0  0  0  0  0  0  0  0  0
   28.5801   34.8946   66.9147 H   0  0  0  0  0  0  0  0  0  0  0  0
   30.3313   34.9952   67.2273 H   0  0  0  0  0  0  0  0  0  0  0  0
  1  2  1  0  0  0  0
  1 24  1  0  0  0  0
  1 25  1  0  0  0  0
  1 26  1  0  0  0  0
  2  3  1  0  0  0  0
  2  4  1  0  0  0  0
  2  5  1  0  0  0  0
  3 27  1  0  0  0  0
  3 28  1  0  0  0  0
  3 29  1  0  0  0  0
  4 30  1  0  0  0  0
  4 31  1  0  0  0  0
  4 32  1  0  0  0  0
  5  6  1  0  0  0  0
  6  7  2  0  0  0  0
  6  8  1  0  0  0  0
  8 12  1  0  0  0  0
  8  9  1  0  0  0  0
  9 10  1  0  0  0  0
  9 33  1  0  0  0  0
  9 34  1  0  0  0  0
 10 11  1  0  0  0  0
 10 35  1  0  0  0  0
 10 36  1  0  0  0  0
 11 12  1  0  0  0  0
 11 37  1  0  0  0  0
 11 38  1  0  0  0  0
 12 13  1  1  0  0  0
 12 14  1  0  0  0  0
 14 15  2  0  0  0  0
 14 16  1  0  0  0  0
 16 17  1  0  0  0  0
 16 39  1  0  0  0  0
 17 23  1  0  0  0  0
 17 18  1  0  0  0  0
 17 40  1  0  0  0  0
 18 19  1  0  0  0  0
 18 41  1  0  0  0  0
 18 42  1  0  0  0  0
 19 20  1  0  0  0  0
 19 43  1  0  0  0  0
 19 44  1  0  0  0  0
 20 21  1  0  0  0  0
 20 45  1  0  0  0  0
 20 46  1  0  0  0  0
 21 22  1  0  0  0  0
 21 47  1  0  0  0  0
 21 48  1  0  0  0  0
 22 23  1  0  0  0  0
 22 49  1  0  0  0  0
 22 50  1  0  0  0  0
 23 51  1  0  0  0  0
 23 52  1  0  0  0  0
M  END
$$$$
