ZINC000000028311      none
 OpenBabel11202420163D

 46 47  0  0  1  0  0  0  0  0999 V2000
   32.6452   34.2692   57.4944 C   0  0  0  0  0  0  0  0  0  0  0  0
   32.8949   35.6564   57.7297 O   0  0  0  0  0  0  0  0  0  0  0  0
   32.5450   36.1484   58.9472 C   0  0  0  0  0  0  0  0  0  0  0  0
   32.7586   37.4868   59.2432 C   0  0  0  0  0  0  0  0  0  0  0  0
   32.4016   37.9847   60.4815 C   0  0  0  0  0  0  0  0  0  0  0  0
   31.8319   37.1502   61.4254 C   0  0  0  0  0  0  0  0  0  0  0  0
   31.4435   37.6959   62.7753 C   0  0  1  0  0  0  0  0  0  0  0  0
   31.6859   38.7576   62.8215 H   0  0  0  0  0  0  0  0  0  0  0  0
   29.9404   37.5063   62.9888 C   0  0  0  0  0  0  0  0  0  0  0  0
   29.4623   38.4504   64.0616 C   0  0  0  0  0  0  0  0  0  0  0  0
   29.5884   39.6433   63.9168 O   0  0  0  0  0  0  0  0  0  0  0  0
   28.8965   37.9661   65.1784 O   0  0  0  0  0  0  0  0  0  0  0  0
   28.4595   38.9336   66.1689 C   0  0  0  0  0  0  0  0  0  0  0  0
   27.8446   38.1996   67.3622 C   0  0  0  0  0  0  0  0  0  0  0  0
   27.3843   39.2190   68.4061 C   0  0  0  0  0  0  0  0  0  0  0  0
   28.5839   40.0436   68.8774 C   0  0  0  0  0  0  0  0  0  0  0  0
   29.1986   40.7777   67.6841 C   0  0  0  0  0  0  0  0  0  0  0  0
   29.6590   39.7581   66.6403 C   0  0  0  0  0  0  0  0  0  0  0  0
   32.2119   36.9493   63.8676 C   0  0  0  0  0  0  0  0  0  0  0  0
   32.2204   37.7511   65.0936 N   0  0  0  0  0  0  0  0  0  0  0  0
   32.7183   38.8626   65.0910 O   0  0  0  0  0  0  0  0  0  0  0  0
   31.7294   37.3061   66.1156 O   0  0  0  0  0  0  0  0  0  0  0  0
   31.6232   35.8146   61.1347 C   0  0  0  0  0  0  0  0  0  0  0  0
   31.9732   35.3133   59.8960 C   0  0  0  0  0  0  0  0  0  0  0  0
   33.1968   33.6724   58.2209 H   0  0  0  0  0  0  0  0  0  0  0  0
   31.5784   34.0697   57.5953 H   0  0  0  0  0  0  0  0  0  0  0  0
   32.9702   34.0072   56.4876 H   0  0  0  0  0  0  0  0  0  0  0  0
   33.2039   38.1389   58.5065 H   0  0  0  0  0  0  0  0  0  0  0  0
   32.5673   39.0266   60.7124 H   0  0  0  0  0  0  0  0  0  0  0  0
   29.7436   36.4787   63.2948 H   0  0  0  0  0  0  0  0  0  0  0  0
   29.4120   37.7158   62.0587 H   0  0  0  0  0  0  0  0  0  0  0  0
   27.7149   39.5955   65.7266 H   0  0  0  0  0  0  0  0  0  0  0  0
   26.9901   37.6121   67.0266 H   0  0  0  0  0  0  0  0  0  0  0  0
   28.5893   37.5377   67.8046 H   0  0  0  0  0  0  0  0  0  0  0  0
   26.9463   38.6960   69.2562 H   0  0  0  0  0  0  0  0  0  0  0  0
   26.6397   39.8809   67.9637 H   0  0  0  0  0  0  0  0  0  0  0  0
   29.3285   39.3817   69.3198 H   0  0  0  0  0  0  0  0  0  0  0  0
   28.2558   40.7699   69.6210 H   0  0  0  0  0  0  0  0  0  0  0  0
   30.0532   41.3651   68.0199 H   0  0  0  0  0  0  0  0  0  0  0  0
   28.4541   41.4395   67.2418 H   0  0  0  0  0  0  0  0  0  0  0  0
   30.4036   39.0963   67.0825 H   0  0  0  0  0  0  0  0  0  0  0  0
   30.0970   40.2811   65.7901 H   0  0  0  0  0  0  0  0  0  0  0  0
   31.7281   35.9923   64.0626 H   0  0  0  0  0  0  0  0  0  0  0  0
   33.2367   36.7780   63.5384 H   0  0  0  0  0  0  0  0  0  0  0  0
   31.1825   35.1638   61.8753 H   0  0  0  0  0  0  0  0  0  0  0  0
   31.8058   34.2709   59.6679 H   0  0  0  0  0  0  0  0  0  0  0  0
  1  2  1  0  0  0  0
  1 25  1  0  0  0  0
  1 26  1  0  0  0  0
  1 27  1  0  0  0  0
  2  3  1  0  0  0  0
  3 24  2  0  0  0  0
  3  4  1  0  0  0  0
  4  5  2  0  0  0  0
  4 28  1  0  0  0  0
  5  6  1  0  0  0  0
  5 29  1  0  0  0  0
  6  7  1  0  0  0  0
  6 23  2  0  0  0  0
  7  8  1  1  0  0  0
  7  9  1  0  0  0  0
  7 19  1  0  0  0  0
  9 10  1  0  0  0  0
  9 30  1  0  0  0  0
  9 31  1  0  0  0  0
 10 11  2  0  0  0  0
 10 12  1  0  0  0  0
 12 13  1  0  0  0  0
 13 18  1  0  0  0  0
 13 14  1  0  0  0  0
 13 32  1  0  0  0  0
 14 15  1  0  0  0  0
 14 33  1  0  0  0  0
 14 34  1  0  0  0  0
 15 16  1  0  0  0  0
 15 35  1  0  0  0  0
 15 36  1  0  0  0  0
 16 17  1  0  0  0  0
 16 37  1  0  0  0  0
 16 38  1  0  0  0  0
 17 18  1  0  0  0  0
 17 39  1  0  0  0  0
 17 40  1  0  0  0  0
 18 41  1  0  0  0  0
 18 42  1  0  0  0  0
 19 20  1  0  0  0  0
 19 43  1  0  0  0  0
 19 44  1  0  0  0  0
 20 21  2  0  0  0  0
 20 22  2  0  0  0  0
 23 24  1  0  0  0  0
 23 45  1  0  0  0  0
 24 46  1  0  0  0  0
M  END
$$$$
