ZINC000000001081      none
 OpenBabel11202420153D

 36 37  0  0  0  0  0  0  0  0999 V2000
   32.2688   33.7966   53.8996 C   0  0  0  0  0  0  0  0  0  0  0  0
   33.5116   33.9771   54.6617 N   0  0  0  0  0  0  0  0  0  0  0  0
   33.8923   32.7362   55.3494 C   0  0  0  0  0  0  0  0  0  0  0  0
   34.7085   31.8566   54.4000 C   0  0  0  0  0  0  0  0  0  0  0  0
   35.0788   30.6494   55.0692 O   0  0  0  0  0  0  0  0  0  0  0  0
   33.3968   35.0193   55.5526 C   0  0  0  0  0  0  0  0  0  0  0  0
   32.9723   34.9152   56.7956 N   0  0  0  0  0  0  0  0  0  0  0  0
   32.9838   36.1130   57.3827 C   0  0  0  0  0  0  0  0  0  0  0  0
   33.4405   37.0346   56.4466 C   0  0  0  0  0  0  0  0  0  0  0  0
   33.5572   38.3866   56.8144 C   0  0  0  0  0  0  0  0  0  0  0  0
   33.9604   39.2106   56.0121 O   0  0  0  0  0  0  0  0  0  0  0  0
   33.2129   38.7632   58.0634 N   0  0  0  0  0  0  0  0  0  0  0  0
   33.3274   40.1716   58.4497 C   0  0  0  0  0  0  0  0  0  0  0  0
   32.7667   37.8653   58.9587 C   0  0  0  0  0  0  0  0  0  0  0  0
   32.4654   38.2408   60.0755 O   0  0  0  0  0  0  0  0  0  0  0  0
   32.6456   36.5605   58.6497 N   0  0  0  0  0  0  0  0  0  0  0  0
   32.1563   35.6128   59.6541 C   0  0  0  0  0  0  0  0  0  0  0  0
   33.7041   36.3167   55.2877 N   0  0  0  0  0  0  0  0  0  0  0  0
   34.2093   36.8545   54.0221 C   0  0  0  0  0  0  0  0  0  0  0  0
   32.0475   34.7081   53.3444 H   0  0  0  0  0  0  0  0  0  0  0  0
   32.3871   32.9666   53.2030 H   0  0  0  0  0  0  0  0  0  0  0  0
   31.4499   33.5812   54.5857 H   0  0  0  0  0  0  0  0  0  0  0  0
   34.4917   32.9766   56.2275 H   0  0  0  0  0  0  0  0  0  0  0  0
   32.9940   32.2015   55.6579 H   0  0  0  0  0  0  0  0  0  0  0  0
   34.1091   31.6162   53.5219 H   0  0  0  0  0  0  0  0  0  0  0  0
   35.6068   32.3913   54.0915 H   0  0  0  0  0  0  0  0  0  0  0  0
   34.3274   30.1215   55.3724 H   0  0  0  0  0  0  0  0  0  0  0  0
   32.3918   40.6859   58.2300 H   0  0  0  0  0  0  0  0  0  0  0  0
   33.5374   40.2397   59.5171 H   0  0  0  0  0  0  0  0  0  0  0  0
   34.1382   40.6373   57.8894 H   0  0  0  0  0  0  0  0  0  0  0  0
   31.9437   36.1442   60.5818 H   0  0  0  0  0  0  0  0  0  0  0  0
   31.2453   35.1368   59.2911 H   0  0  0  0  0  0  0  0  0  0  0  0
   32.9156   34.8525   59.8367 H   0  0  0  0  0  0  0  0  0  0  0  0
   33.3704   37.1514   53.3927 H   0  0  0  0  0  0  0  0  0  0  0  0
   34.8389   37.7216   54.2213 H   0  0  0  0  0  0  0  0  0  0  0  0
   34.7946   36.0903   53.5105 H   0  0  0  0  0  0  0  0  0  0  0  0
  1  2  1  0  0  0  0
  1 20  1  0  0  0  0
  1 21  1  0  0  0  0
  1 22  1  0  0  0  0
  2  3  1  0  0  0  0
  2  6  1  0  0  0  0
  3  4  1  0  0  0  0
  3 23  1  0  0  0  0
  3 24  1  0  0  0  0
  4  5  1  0  0  0  0
  4 25  1  0  0  0  0
  4 26  1  0  0  0  0
  5 27  1  0  0  0  0
  6 18  1  0  0  0  0
  6  7  2  0  0  0  0
  7  8  1  0  0  0  0
  8 16  1  0  0  0  0
  8  9  2  0  0  0  0
  9 10  1  0  0  0  0
  9 18  1  0  0  0  0
 10 11  2  0  0  0  0
 10 12  1  0  0  0  0
 12 13  1  0  0  0  0
 12 14  1  0  0  0  0
 13 28  1  0  0  0  0
 13 29  1  0  0  0  0
 13 30  1  0  0  0  0
 14 15  2  0  0  0  0
 14 16  1  0  0  0  0
 16 17  1  0  0  0  0
 17 31  1  0  0  0  0
 17 32  1  0  0  0  0
 17 33  1  0  0  0  0
 18 19  1  0  0  0  0
 19 34  1  0  0  0  0
 19 35  1  0  0  0  0
 19 36  1  0  0  0  0
M  END
$$$$
