ZINC000000011428      none
 OpenBabel11202420153D

 27 28  0  0  0  0  0  0  0  0999 V2000
   33.4908   34.4612   54.6926 C   0  0  0  0  0  0  0  0  0  0  0  0
   33.5128   35.7214   55.3660 O   0  0  0  0  0  0  0  0  0  0  0  0
   33.9530   36.7917   54.6565 C   0  0  0  0  0  0  0  0  0  0  0  0
   34.3558   36.6354   53.3389 C   0  0  0  0  0  0  0  0  0  0  0  0
   34.8024   37.7247   52.6180 C   0  0  0  0  0  0  0  0  0  0  0  0
   34.8522   38.9788   53.2041 C   0  0  0  0  0  0  0  0  0  0  0  0
   34.4550   39.1499   54.5136 C   0  0  0  0  0  0  0  0  0  0  0  0
   34.0017   38.0570   55.2516 C   0  0  0  0  0  0  0  0  0  0  0  0
   33.5733   38.2348   56.6580 C   0  0  0  0  0  0  0  0  0  0  0  0
   33.1356   37.1911   57.3576 N   0  0  0  0  0  0  0  0  0  0  0  0
   32.7561   37.3505   58.6216 C   0  0  0  0  0  0  0  0  0  0  0  0
   32.3078   36.2668   59.3493 N   0  0  0  0  0  0  0  0  0  0  0  0
   32.8038   38.5543   59.1832 N   0  0  0  0  0  0  0  0  0  0  0  0
   33.2357   39.5984   58.4833 C   0  0  0  0  0  0  0  0  0  0  0  0
   33.2849   40.8480   59.0675 N   0  0  0  0  0  0  0  0  0  0  0  0
   33.6208   39.4395   57.2210 N   0  0  0  0  0  0  0  0  0  0  0  0
   32.8366   34.5253   53.8232 H   0  0  0  0  0  0  0  0  0  0  0  0
   34.4998   34.2039   54.3701 H   0  0  0  0  0  0  0  0  0  0  0  0
   33.1193   33.6932   55.3710 H   0  0  0  0  0  0  0  0  0  0  0  0
   34.3201   35.6603   52.8759 H   0  0  0  0  0  0  0  0  0  0  0  0
   35.1200   37.5984   51.5935 H   0  0  0  0  0  0  0  0  0  0  0  0
   35.2031   39.8259   52.6334 H   0  0  0  0  0  0  0  0  0  0  0  0
   34.4953   40.1293   54.9672 H   0  0  0  0  0  0  0  0  0  0  0  0
   32.0276   36.3837   60.2706 H   0  0  0  0  0  0  0  0  0  0  0  0
   32.2730   35.3883   58.9394 H   0  0  0  0  0  0  0  0  0  0  0  0
   33.6003   41.6101   58.5569 H   0  0  0  0  0  0  0  0  0  0  0  0
   33.0039   40.9641   59.9887 H   0  0  0  0  0  0  0  0  0  0  0  0
  1  2  1  0  0  0  0
  1 17  1  0  0  0  0
  1 18  1  0  0  0  0
  1 19  1  0  0  0  0
  2  3  1  0  0  0  0
  3  8  2  0  0  0  0
  3  4  1  0  0  0  0
  4  5  2  0  0  0  0
  4 20  1  0  0  0  0
  5  6  1  0  0  0  0
  5 21  1  0  0  0  0
  6  7  2  0  0  0  0
  6 22  1  0  0  0  0
  7  8  1  0  0  0  0
  7 23  1  0  0  0  0
  8  9  1  0  0  0  0
  9 16  2  0  0  0  0
  9 10  1  0  0  0  0
 10 11  2  0  0  0  0
 11 12  1  0  0  0  0
 11 13  1  0  0  0  0
 12 24  1  0  0  0  0
 12 25  1  0  0  0  0
 13 14  2  0  0  0  0
 14 15  1  0  0  0  0
 14 16  1  0  0  0  0
 15 26  1  0  0  0  0
 15 27  1  0  0  0  0
M  END
$$$$
