ZINC000000033362      none
 OpenBabel11202420153D

 36 38  0  0  0  0  0  0  0  0999 V2000
   31.0943   40.2863   65.5269 O   0  0  0  0  0  0  0  0  0  0  0  0
   30.4920   40.3324   66.5831 C   0  0  0  0  0  0  0  0  0  0  0  0
   29.7065   41.3356   67.0252 N   0  0  0  0  0  0  0  0  0  0  0  0
   29.2177   41.0300   68.2368 C   0  0  0  0  0  0  0  0  0  0  0  0
   28.1823   42.0446   69.1476 S   0  0  0  0  0  0  0  0  0  0  0  0
   29.6486   39.8224   68.6418 N   0  0  0  0  0  0  0  0  0  0  0  0
   30.4704   39.3019   67.6357 C   0  0  0  0  0  0  0  0  0  0  0  0
   31.1134   38.1085   67.6330 C   0  0  0  0  0  0  0  0  0  0  0  0
   31.8022   37.6471   66.4186 C   0  0  0  0  0  0  0  0  0  0  0  0
   33.1793   37.3989   66.4428 C   0  0  0  0  0  0  0  0  0  0  0  0
   33.8206   36.9669   65.3014 C   0  0  0  0  0  0  0  0  0  0  0  0
   33.1077   36.7776   64.1309 C   0  0  0  0  0  0  0  0  0  0  0  0
   31.7408   37.0203   64.0960 C   0  0  0  0  0  0  0  0  0  0  0  0
   31.0472   36.8320   62.9424 O   0  0  0  0  0  0  0  0  0  0  0  0
   30.9393   37.9511   62.0602 C   0  0  0  0  0  0  0  0  0  0  0  0
   31.5578   37.6040   60.7305 C   0  0  0  0  0  0  0  0  0  0  0  0
   32.1321   38.5947   59.9562 C   0  0  0  0  0  0  0  0  0  0  0  0
   32.7042   38.2767   58.7391 C   0  0  0  0  0  0  0  0  0  0  0  0
   32.6973   36.9660   58.2929 C   0  0  0  0  0  0  0  0  0  0  0  0
   33.2567   36.6538   57.1034 F   0  0  0  0  0  0  0  0  0  0  0  0
   32.1171   35.9754   59.0669 C   0  0  0  0  0  0  0  0  0  0  0  0
   31.5456   36.2957   60.2837 C   0  0  0  0  0  0  0  0  0  0  0  0
   31.0852   37.4595   65.2329 C   0  0  0  0  0  0  0  0  0  0  0  0
   29.5257   42.1568   66.5416 H   0  0  0  0  0  0  0  0  0  0  0  0
   29.4288   39.3892   69.4814 H   0  0  0  0  0  0  0  0  0  0  0  0
   31.1196   37.4964   68.5228 H   0  0  0  0  0  0  0  0  0  0  0  0
   33.7390   37.5461   67.3546 H   0  0  0  0  0  0  0  0  0  0  0  0
   34.8835   36.7759   65.3209 H   0  0  0  0  0  0  0  0  0  0  0  0
   33.6164   36.4389   63.2405 H   0  0  0  0  0  0  0  0  0  0  0  0
   31.4609   38.8054   62.4916 H   0  0  0  0  0  0  0  0  0  0  0  0
   29.8879   38.2013   61.9177 H   0  0  0  0  0  0  0  0  0  0  0  0
   32.1378   39.6169   60.3046 H   0  0  0  0  0  0  0  0  0  0  0  0
   33.1568   39.0502   58.1363 H   0  0  0  0  0  0  0  0  0  0  0  0
   32.1115   34.9526   58.7200 H   0  0  0  0  0  0  0  0  0  0  0  0
   31.0933   35.5231   60.8877 H   0  0  0  0  0  0  0  0  0  0  0  0
   30.0230   37.6529   65.2055 H   0  0  0  0  0  0  0  0  0  0  0  0
  1  2  2  0  0  0  0
  2  7  1  0  0  0  0
  2  3  1  0  0  0  0
  3  4  1  0  0  0  0
  3 24  1  0  0  0  0
  4  5  2  0  0  0  0
  4  6  1  0  0  0  0
  6  7  1  0  0  0  0
  6 25  1  0  0  0  0
  7  8  2  0  0  0  0
  8  9  1  0  0  0  0
  8 26  1  0  0  0  0
  9 23  2  0  0  0  0
  9 10  1  0  0  0  0
 10 11  2  0  0  0  0
 10 27  1  0  0  0  0
 11 12  1  0  0  0  0
 11 28  1  0  0  0  0
 12 13  2  0  0  0  0
 12 29  1  0  0  0  0
 13 14  1  0  0  0  0
 13 23  1  0  0  0  0
 14 15  1  0  0  0  0
 15 16  1  0  0  0  0
 15 30  1  0  0  0  0
 15 31  1  0  0  0  0
 16 22  2  0  0  0  0
 16 17  1  0  0  0  0
 17 18  2  0  0  0  0
 17 32  1  0  0  0  0
 18 19  1  0  0  0  0
 18 33  1  0  0  0  0
 19 20  1  0  0  0  0
 19 21  2  0  0  0  0
 21 22  1  0  0  0  0
 21 34  1  0  0  0  0
 22 35  1  0  0  0  0
 23 36  1  0  0  0  0
M  END
$$$$
