ZINC000000002174      none
 OpenBabel11202420153D

 35 37  0  0  0  0  0  0  0  0999 V2000
   30.6316   32.7630   58.4265 C   0  0  0  0  0  0  0  0  0  0  0  0
   31.6781   33.4779   59.0866 O   0  0  0  0  0  0  0  0  0  0  0  0
   32.3114   34.4474   58.3707 C   0  0  0  0  0  0  0  0  0  0  0  0
   32.9759   34.1190   57.1925 C   0  0  0  0  0  0  0  0  0  0  0  0
   33.1550   32.9556   56.5324 O   0  0  0  0  0  0  0  0  0  0  0  0
   33.8822   33.1434   55.4163 C   0  0  0  0  0  0  0  0  0  0  0  0
   34.2135   34.4347   55.2920 C   0  0  0  0  0  0  0  0  0  0  0  0
   33.6305   35.1202   56.4531 C   0  0  0  0  0  0  0  0  0  0  0  0
   33.6194   36.4445   56.8923 C   0  0  0  0  0  0  0  0  0  0  0  0
   34.2509   37.4107   56.1783 O   0  0  0  0  0  0  0  0  0  0  0  0
   33.4846   38.0826   55.1765 C   0  0  0  0  0  0  0  0  0  0  0  0
   32.9503   36.7633   58.0747 C   0  0  0  0  0  0  0  0  0  0  0  0
   32.9090   38.1461   58.5802 C   0  0  0  0  0  0  0  0  0  0  0  0
   33.4573   39.0571   57.9832 O   0  0  0  0  0  0  0  0  0  0  0  0
   32.2032   38.3747   59.7925 C   0  0  0  0  0  0  0  0  0  0  0  0
   31.6112   37.3448   60.4216 C   0  0  0  0  0  0  0  0  0  0  0  0
   30.8692   37.6156   61.7049 C   0  0  0  0  0  0  0  0  0  0  0  0
   32.0054   37.4428   63.1084 S   0  0  0  0  0  0  0  0  0  0  0  0
   31.1670   38.3628   64.4280 C   0  0  0  0  0  0  0  0  0  0  0  0
   31.6468   36.0915   59.9565 O   0  0  0  0  0  0  0  0  0  0  0  0
   32.2936   35.7599   58.8167 C   0  0  0  0  0  0  0  0  0  0  0  0
   30.2125   32.0218   59.1070 H   0  0  0  0  0  0  0  0  0  0  0  0
   29.8507   33.4602   58.1230 H   0  0  0  0  0  0  0  0  0  0  0  0
   31.0333   32.2616   57.5460 H   0  0  0  0  0  0  0  0  0  0  0  0
   34.1586   32.3648   54.7207 H   0  0  0  0  0  0  0  0  0  0  0  0
   34.7926   34.8822   54.4979 H   0  0  0  0  0  0  0  0  0  0  0  0
   34.1073   38.8282   54.6821 H   0  0  0  0  0  0  0  0  0  0  0  0
   33.1324   37.3585   54.4419 H   0  0  0  0  0  0  0  0  0  0  0  0
   32.6297   38.5737   55.6415 H   0  0  0  0  0  0  0  0  0  0  0  0
   32.1424   39.3706   60.2060 H   0  0  0  0  0  0  0  0  0  0  0  0
   30.4673   38.6286   61.6855 H   0  0  0  0  0  0  0  0  0  0  0  0
   30.0516   36.9023   61.8095 H   0  0  0  0  0  0  0  0  0  0  0  0
   30.1922   37.9145   64.6205 H   0  0  0  0  0  0  0  0  0  0  0  0
   31.7694   38.3263   65.3356 H   0  0  0  0  0  0  0  0  0  0  0  0
   31.0355   39.4002   64.1207 H   0  0  0  0  0  0  0  0  0  0  0  0
  1  2  1  0  0  0  0
  1 22  1  0  0  0  0
  1 23  1  0  0  0  0
  1 24  1  0  0  0  0
  2  3  1  0  0  0  0
  3 21  2  0  0  0  0
  3  4  1  0  0  0  0
  4  8  2  0  0  0  0
  4  5  1  0  0  0  0
  5  6  1  0  0  0  0
  6  7  2  0  0  0  0
  6 25  1  0  0  0  0
  7  8  1  0  0  0  0
  7 26  1  0  0  0  0
  8  9  1  0  0  0  0
  9 10  1  0  0  0  0
  9 12  2  0  0  0  0
 10 11  1  0  0  0  0
 11 27  1  0  0  0  0
 11 28  1  0  0  0  0
 11 29  1  0  0  0  0
 12 21  1  0  0  0  0
 12 13  1  0  0  0  0
 13 14  2  0  0  0  0
 13 15  1  0  0  0  0
 15 16  2  0  0  0  0
 15 30  1  0  0  0  0
 16 17  1  0  0  0  0
 16 20  1  0  0  0  0
 17 18  1  0  0  0  0
 17 31  1  0  0  0  0
 17 32  1  0  0  0  0
 18 19  1  0  0  0  0
 19 33  1  0  0  0  0
 19 34  1  0  0  0  0
 19 35  1  0  0  0  0
 20 21  1  0  0  0  0
M  END
$$$$
