ZINC000000031299      none
 OpenBabel11202420163D

 28 29  0  0  0  0  0  0  0  0999 V2000
   33.0317   39.7774   59.5146 N   0  0  0  0  0  0  0  0  0  0  0  0
   32.8915   38.5204   58.9411 C   0  0  0  0  0  0  0  0  0  0  0  0
   33.2411   38.3162   57.6119 C   0  0  0  0  0  0  0  0  0  0  0  0
   33.1005   37.0666   57.0444 C   0  0  0  0  0  0  0  0  0  0  0  0
   32.6109   36.0071   57.7921 C   0  0  0  0  0  0  0  0  0  0  0  0
   32.2591   36.1900   59.1113 C   0  0  0  0  0  0  0  0  0  0  0  0
   32.3954   37.4495   59.7009 C   0  0  0  0  0  0  0  0  0  0  0  0
   32.0204   37.6524   61.1120 C   0  0  0  0  0  0  0  0  0  0  0  0
   32.5777   37.0175   61.9866 O   0  0  0  0  0  0  0  0  0  0  0  0
   31.0599   38.5419   61.4327 N   0  0  0  0  0  0  0  0  0  0  0  0
   30.7039   38.7345   62.7719 C   0  0  0  0  0  0  0  0  0  0  0  0
   29.4090   39.1149   63.0998 C   0  0  0  0  0  0  0  0  0  0  0  0
   29.0592   39.3003   64.4229 C   0  0  0  0  0  0  0  0  0  0  0  0
   30.0001   39.1166   65.4208 C   0  0  0  0  0  0  0  0  0  0  0  0
   29.5587   39.3562   67.0826 Cl  0  0  0  0  0  0  0  0  0  0  0  0
   31.2925   38.7427   65.0966 C   0  0  0  0  0  0  0  0  0  0  0  0
   31.6463   38.5513   63.7754 C   0  0  0  0  0  0  0  0  0  0  0  0
   33.6763   40.4059   59.1537 H   0  0  0  0  0  0  0  0  0  0  0  0
   32.4850   40.0268   60.2760 H   0  0  0  0  0  0  0  0  0  0  0  0
   33.6237   39.1364   57.0226 H   0  0  0  0  0  0  0  0  0  0  0  0
   33.3737   36.9129   56.0108 H   0  0  0  0  0  0  0  0  0  0  0  0
   32.5090   35.0319   57.3394 H   0  0  0  0  0  0  0  0  0  0  0  0
   31.8785   35.3608   59.6892 H   0  0  0  0  0  0  0  0  0  0  0  0
   30.6153   39.0484   60.7350 H   0  0  0  0  0  0  0  0  0  0  0  0
   28.6755   39.2621   62.3210 H   0  0  0  0  0  0  0  0  0  0  0  0
   28.0515   39.5925   64.6786 H   0  0  0  0  0  0  0  0  0  0  0  0
   32.0250   38.6007   65.8774 H   0  0  0  0  0  0  0  0  0  0  0  0
   32.6552   38.2598   63.5229 H   0  0  0  0  0  0  0  0  0  0  0  0
  1  2  1  0  0  0  0
  1 18  1  0  0  0  0
  1 19  1  0  0  0  0
  2  7  2  0  0  0  0
  2  3  1  0  0  0  0
  3  4  2  0  0  0  0
  3 20  1  0  0  0  0
  4  5  1  0  0  0  0
  4 21  1  0  0  0  0
  5  6  2  0  0  0  0
  5 22  1  0  0  0  0
  6  7  1  0  0  0  0
  6 23  1  0  0  0  0
  7  8  1  0  0  0  0
  8  9  2  0  0  0  0
  8 10  1  0  0  0  0
 10 11  1  0  0  0  0
 10 24  1  0  0  0  0
 11 17  2  0  0  0  0
 11 12  1  0  0  0  0
 12 13  2  0  0  0  0
 12 25  1  0  0  0  0
 13 14  1  0  0  0  0
 13 26  1  0  0  0  0
 14 15  1  0  0  0  0
 14 16  2  0  0  0  0
 16 17  1  0  0  0  0
 16 27  1  0  0  0  0
 17 28  1  0  0  0  0
M  END
$$$$
