ZINC000000052250      none
 OpenBabel11202420153D

 35 38  0  0  1  0  0  0  0  0999 V2000
   32.2767   38.2873   60.5970 O   0  0  0  0  0  0  0  0  0  0  0  0
   32.3282   37.8731   59.4589 C   0  0  0  0  0  0  0  0  0  0  0  0
   32.4283   38.7322   58.2172 C   0  0  0  0  0  0  0  0  0  0  0  0
   32.4533   37.7044   57.0677 C   0  0  1  0  0  0  0  0  0  0  0  0
   31.5955   37.8410   56.4091 H   0  0  0  0  0  0  0  0  0  0  0  0
   33.9980   37.8313   56.1330 S   0  0  0  0  0  0  0  0  0  0  0  0
   34.0154   36.2506   55.3546 C   0  0  0  0  0  0  0  0  0  0  0  0
   34.5541   35.1900   55.8530 N   0  0  0  0  0  0  0  0  0  0  0  0
   34.4851   34.0515   55.1351 C   0  0  0  0  0  0  0  0  0  0  0  0
   34.9897   32.7734   55.4563 C   0  0  0  0  0  0  0  0  0  0  0  0
   34.8210   31.7220   54.5909 C   0  0  0  0  0  0  0  0  0  0  0  0
   34.1529   31.8977   53.3881 C   0  0  0  0  0  0  0  0  0  0  0  0
   33.6518   33.1363   53.0539 C   0  0  0  0  0  0  0  0  0  0  0  0
   33.8138   34.2147   53.9198 C   0  0  0  0  0  0  0  0  0  0  0  0
   33.2945   35.8935   53.7914 S   0  0  0  0  0  0  0  0  0  0  0  0
   32.3702   36.3724   57.7809 C   0  0  0  0  0  0  0  0  0  0  0  0
   32.3616   35.2866   57.2419 O   0  0  0  0  0  0  0  0  0  0  0  0
   32.3083   36.5831   59.1015 N   0  0  0  0  0  0  0  0  0  0  0  0
   32.2238   35.5389   60.0333 C   0  0  0  0  0  0  0  0  0  0  0  0
   32.8030   34.3086   59.7536 C   0  0  0  0  0  0  0  0  0  0  0  0
   32.7131   33.2801   60.6710 C   0  0  0  0  0  0  0  0  0  0  0  0
   32.0566   33.4782   61.8718 C   0  0  0  0  0  0  0  0  0  0  0  0
   31.4783   34.7023   62.1530 C   0  0  0  0  0  0  0  0  0  0  0  0
   31.5603   35.7331   61.2372 C   0  0  0  0  0  0  0  0  0  0  0  0
   33.3462   39.3199   58.2263 H   0  0  0  0  0  0  0  0  0  0  0  0
   31.5582   39.3831   58.1311 H   0  0  0  0  0  0  0  0  0  0  0  0
   35.5122   32.6218   56.3891 H   0  0  0  0  0  0  0  0  0  0  0  0
   35.2117   30.7487   54.8489 H   0  0  0  0  0  0  0  0  0  0  0  0
   34.0254   31.0635   52.7142 H   0  0  0  0  0  0  0  0  0  0  0  0
   33.1319   33.2717   52.1168 H   0  0  0  0  0  0  0  0  0  0  0  0
   33.3194   34.1545   58.8176 H   0  0  0  0  0  0  0  0  0  0  0  0
   33.1600   32.3215   60.4523 H   0  0  0  0  0  0  0  0  0  0  0  0
   31.9915   32.6739   62.5896 H   0  0  0  0  0  0  0  0  0  0  0  0
   30.9624   34.8529   63.0897 H   0  0  0  0  0  0  0  0  0  0  0  0
   31.1086   36.6890   61.4573 H   0  0  0  0  0  0  0  0  0  0  0  0
  1  2  2  0  0  0  0
  2 18  1  0  0  0  0
  2  3  1  0  0  0  0
  3  4  1  0  0  0  0
  3 25  1  0  0  0  0
  3 26  1  0  0  0  0
  4  5  1  6  0  0  0
  4  6  1  0  0  0  0
  4 16  1  0  0  0  0
  6  7  1  0  0  0  0
  7 15  1  0  0  0  0
  7  8  2  0  0  0  0
  8  9  1  0  0  0  0
  9 14  2  0  0  0  0
  9 10  1  0  0  0  0
 10 11  2  0  0  0  0
 10 27  1  0  0  0  0
 11 12  1  0  0  0  0
 11 28  1  0  0  0  0
 12 13  2  0  0  0  0
 12 29  1  0  0  0  0
 13 14  1  0  0  0  0
 13 30  1  0  0  0  0
 14 15  1  0  0  0  0
 16 17  2  0  0  0  0
 16 18  1  0  0  0  0
 18 19  1  0  0  0  0
 19 24  2  0  0  0  0
 19 20  1  0  0  0  0
 20 21  2  0  0  0  0
 20 31  1  0  0  0  0
 21 22  1  0  0  0  0
 21 32  1  0  0  0  0
 22 23  2  0  0  0  0
 22 33  1  0  0  0  0
 23 24  1  0  0  0  0
 23 34  1  0  0  0  0
 24 35  1  0  0  0  0
M  END
$$$$
