ZINC000000028147      none
 OpenBabel11202420163D

 14 14  0  0  0  0  0  0  0  0999 V2000
   33.2222   40.6347   59.1606 O   0  0  0  0  0  0  0  0  0  0  0  0
   33.1383   39.3896   58.6194 C   0  0  0  0  0  0  0  0  0  0  0  0
   33.5396   39.1733   57.3109 C   0  0  0  0  0  0  0  0  0  0  0  0
   33.4543   37.9065   56.7618 C   0  0  0  0  0  0  0  0  0  0  0  0
   33.9570   37.6372   55.1221 Cl  0  0  0  0  0  0  0  0  0  0  0  0
   32.9631   36.8543   57.5158 C   0  0  0  0  0  0  0  0  0  0  0  0
   32.8516   35.2676   56.8204 Cl  0  0  0  0  0  0  0  0  0  0  0  0
   32.5662   37.0642   58.8243 C   0  0  0  0  0  0  0  0  0  0  0  0
   32.6497   38.3312   59.3788 C   0  0  0  0  0  0  0  0  0  0  0  0
   32.2552   38.5398   60.6637 O   0  0  0  0  0  0  0  0  0  0  0  0
   32.9195   40.6862   60.0775 H   0  0  0  0  0  0  0  0  0  0  0  0
   33.9195   39.9936   56.7200 H   0  0  0  0  0  0  0  0  0  0  0  0
   32.1871   36.2413   59.4121 H   0  0  0  0  0  0  0  0  0  0  0  0
   31.9309   37.7455   61.1095 H   0  0  0  0  0  0  0  0  0  0  0  0
  1  2  1  0  0  0  0
  1 11  1  0  0  0  0
  2  9  2  0  0  0  0
  2  3  1  0  0  0  0
  3  4  2  0  0  0  0
  3 12  1  0  0  0  0
  4  5  1  0  0  0  0
  4  6  1  0  0  0  0
  6  7  1  0  0  0  0
  6  8  2  0  0  0  0
  8  9  1  0  0  0  0
  8 13  1  0  0  0  0
  9 10  1  0  0  0  0
 10 14  1  0  0  0  0
M  END
$$$$
