ZINC000000042067      none
 OpenBabel11202420153D

 39 41  0  0  0  0  0  0  0  0999 V2000
   32.3375   34.1554   59.9625 O   0  0  0  0  0  0  0  0  0  0  0  0
   32.5628   34.8505   58.9910 C   0  0  0  0  0  0  0  0  0  0  0  0
   33.1744   34.2566   57.7830 C   0  0  0  0  0  0  0  0  0  0  0  0
   32.4955   34.2921   56.5639 C   0  0  0  0  0  0  0  0  0  0  0  0
   33.0743   33.7412   55.4393 C   0  0  0  0  0  0  0  0  0  0  0  0
   34.3201   33.1444   55.5204 C   0  0  0  0  0  0  0  0  0  0  0  0
   34.9325   32.5503   54.3110 N   0  0  0  0  0  0  0  0  0  0  0  0
   34.3401   32.5875   53.2474 O   0  0  0  0  0  0  0  0  0  0  0  0
   36.0289   32.0243   54.3793 O   0  0  0  0  0  0  0  0  0  0  0  0
   34.9957   33.1008   56.7269 C   0  0  0  0  0  0  0  0  0  0  0  0
   34.4308   33.6530   57.8578 C   0  0  0  0  0  0  0  0  0  0  0  0
   32.2550   36.1623   59.0150 N   0  0  0  0  0  0  0  0  0  0  0  0
   32.4607   37.1448   57.9273 C   0  0  0  0  0  0  0  0  0  0  0  0
   32.4576   38.4996   58.6789 C   0  0  0  0  0  0  0  0  0  0  0  0
   31.4689   38.2787   59.7116 O   0  0  0  0  0  0  0  0  0  0  0  0
   31.6450   36.9153   60.1275 C   0  0  0  0  0  0  0  0  0  0  0  0
   30.2865   36.3071   60.4770 C   0  0  0  0  0  0  0  0  0  0  0  0
   29.6568   37.0946   61.6282 C   0  0  0  0  0  0  0  0  0  0  0  0
   30.5775   37.0375   62.8486 C   0  0  0  0  0  0  0  0  0  0  0  0
   31.9329   37.6537   62.4958 C   0  0  0  0  0  0  0  0  0  0  0  0
   32.5668   36.8670   61.3464 C   0  0  0  0  0  0  0  0  0  0  0  0
   31.5210   34.7534   56.5004 H   0  0  0  0  0  0  0  0  0  0  0  0
   32.5520   33.7719   54.4945 H   0  0  0  0  0  0  0  0  0  0  0  0
   35.9676   32.6331   56.7835 H   0  0  0  0  0  0  0  0  0  0  0  0
   34.9590   33.6180   58.7992 H   0  0  0  0  0  0  0  0  0  0  0  0
   31.6434   37.1006   57.2073 H   0  0  0  0  0  0  0  0  0  0  0  0
   33.4181   36.9793   57.4332 H   0  0  0  0  0  0  0  0  0  0  0  0
   33.4355   38.7028   59.1156 H   0  0  0  0  0  0  0  0  0  0  0  0
   32.1553   39.3100   58.0157 H   0  0  0  0  0  0  0  0  0  0  0  0
   29.6331   36.3521   59.6057 H   0  0  0  0  0  0  0  0  0  0  0  0
   30.4200   35.2680   60.7778 H   0  0  0  0  0  0  0  0  0  0  0  0
   28.6906   36.6580   61.8813 H   0  0  0  0  0  0  0  0  0  0  0  0
   29.5185   38.1325   61.3256 H   0  0  0  0  0  0  0  0  0  0  0  0
   30.7180   35.9993   63.1494 H   0  0  0  0  0  0  0  0  0  0  0  0
   30.1275   37.5955   63.6696 H   0  0  0  0  0  0  0  0  0  0  0  0
   32.5873   37.6154   63.3668 H   0  0  0  0  0  0  0  0  0  0  0  0
   31.7923   38.6910   62.1922 H   0  0  0  0  0  0  0  0  0  0  0  0
   32.7117   35.8307   61.6517 H   0  0  0  0  0  0  0  0  0  0  0  0
   33.5300   37.3089   61.0914 H   0  0  0  0  0  0  0  0  0  0  0  0
  1  2  2  0  0  0  0
  2  3  1  0  0  0  0
  2 12  1  0  0  0  0
  3 11  2  0  0  0  0
  3  4  1  0  0  0  0
  4  5  2  0  0  0  0
  4 22  1  0  0  0  0
  5  6  1  0  0  0  0
  5 23  1  0  0  0  0
  6  7  1  0  0  0  0
  6 10  2  0  0  0  0
  7  8  2  0  0  0  0
  7  9  2  0  0  0  0
 10 11  1  0  0  0  0
 10 24  1  0  0  0  0
 11 25  1  0  0  0  0
 12 16  1  0  0  0  0
 12 13  1  0  0  0  0
 13 14  1  0  0  0  0
 13 26  1  0  0  0  0
 13 27  1  0  0  0  0
 14 15  1  0  0  0  0
 14 28  1  0  0  0  0
 14 29  1  0  0  0  0
 15 16  1  0  0  0  0
 16 21  1  0  0  0  0
 16 17  1  0  0  0  0
 17 18  1  0  0  0  0
 17 30  1  0  0  0  0
 17 31  1  0  0  0  0
 18 19  1  0  0  0  0
 18 32  1  0  0  0  0
 18 33  1  0  0  0  0
 19 20  1  0  0  0  0
 19 34  1  0  0  0  0
 19 35  1  0  0  0  0
 20 21  1  0  0  0  0
 20 36  1  0  0  0  0
 20 37  1  0  0  0  0
 21 38  1  0  0  0  0
 21 39  1  0  0  0  0
M  END
$$$$
