ZINC000000024657      none
 OpenBabel11202420153D

 27 28  0  0  0  0  0  0  0  0999 V2000
   30.8106   32.8951   56.6996 C   0  0  0  0  0  0  0  0  0  0  0  0
   32.0744   33.2286   57.2771 O   0  0  0  0  0  0  0  0  0  0  0  0
   32.2698   34.5283   57.6272 C   0  0  0  0  0  0  0  0  0  0  0  0
   31.9252   34.9566   58.9105 C   0  0  0  0  0  0  0  0  0  0  0  0
   32.1109   36.2547   59.2904 C   0  0  0  0  0  0  0  0  0  0  0  0
   31.7701   36.6526   60.5446 O   0  0  0  0  0  0  0  0  0  0  0  0
   32.6566   37.1812   58.3795 C   0  0  0  0  0  0  0  0  0  0  0  0
   32.8593   38.5232   58.7415 C   0  0  0  0  0  0  0  0  0  0  0  0
   33.3894   39.3925   57.8380 C   0  0  0  0  0  0  0  0  0  0  0  0
   33.7350   38.9719   56.5549 C   0  0  0  0  0  0  0  0  0  0  0  0
   33.5582   37.6781   56.1708 C   0  0  0  0  0  0  0  0  0  0  0  0
   33.0085   36.7533   57.0749 C   0  0  0  0  0  0  0  0  0  0  0  0
   32.8068   35.4086   56.7102 C   0  0  0  0  0  0  0  0  0  0  0  0
   33.1392   34.9799   55.4624 O   0  0  0  0  0  0  0  0  0  0  0  0
   34.4685   34.4888   55.2778 C   0  0  0  0  0  0  0  0  0  0  0  0
   30.6663   33.4699   55.7846 H   0  0  0  0  0  0  0  0  0  0  0  0
   30.7868   31.8304   56.4674 H   0  0  0  0  0  0  0  0  0  0  0  0
   30.0147   33.1309   57.4060 H   0  0  0  0  0  0  0  0  0  0  0  0
   31.5064   34.2511   59.6127 H   0  0  0  0  0  0  0  0  0  0  0  0
   31.4045   35.9469   61.0953 H   0  0  0  0  0  0  0  0  0  0  0  0
   32.5956   38.8638   59.7318 H   0  0  0  0  0  0  0  0  0  0  0  0
   33.5440   40.4237   58.1194 H   0  0  0  0  0  0  0  0  0  0  0  0
   34.1535   39.6818   55.8569 H   0  0  0  0  0  0  0  0  0  0  0  0
   33.8348   37.3650   55.1749 H   0  0  0  0  0  0  0  0  0  0  0  0
   34.6013   34.1805   54.2409 H   0  0  0  0  0  0  0  0  0  0  0  0
   35.1832   35.2763   55.5172 H   0  0  0  0  0  0  0  0  0  0  0  0
   34.6350   33.6353   55.9349 H   0  0  0  0  0  0  0  0  0  0  0  0
  1  2  1  0  0  0  0
  1 16  1  0  0  0  0
  1 17  1  0  0  0  0
  1 18  1  0  0  0  0
  2  3  1  0  0  0  0
  3 13  2  0  0  0  0
  3  4  1  0  0  0  0
  4  5  2  0  0  0  0
  4 19  1  0  0  0  0
  5  6  1  0  0  0  0
  5  7  1  0  0  0  0
  6 20  1  0  0  0  0
  7 12  2  0  0  0  0
  7  8  1  0  0  0  0
  8  9  2  0  0  0  0
  8 21  1  0  0  0  0
  9 10  1  0  0  0  0
  9 22  1  0  0  0  0
 10 11  2  0  0  0  0
 10 23  1  0  0  0  0
 11 12  1  0  0  0  0
 11 24  1  0  0  0  0
 12 13  1  0  0  0  0
 13 14  1  0  0  0  0
 14 15  1  0  0  0  0
 15 25  1  0  0  0  0
 15 26  1  0  0  0  0
 15 27  1  0  0  0  0
M  END
$$$$
