ZINC000000040788      none
 OpenBabel11202420153D

 35 36  0  0  1  0  0  0  0  0999 V2000
   31.2200   32.8734   62.3493 O   0  0  0  0  0  0  0  0  0  0  0  0
   32.1038   33.9148   61.9289 C   0  0  0  0  0  0  0  0  0  0  0  0
   31.2994   35.1874   61.6568 C   0  0  2  0  0  0  0  0  0  0  0  0
   30.5671   34.9941   60.8728 H   0  0  0  0  0  0  0  0  0  0  0  0
   32.1829   36.2292   61.2370 O   0  0  0  0  0  0  0  0  0  0  0  0
   31.5281   37.4617   60.9303 C   0  0  2  0  0  0  0  0  0  0  0  0
   30.7986   37.2980   60.1369 H   0  0  0  0  0  0  0  0  0  0  0  0
   32.5195   38.4448   60.4871 N   0  0  0  0  0  0  0  0  0  0  0  0
   32.8423   38.5494   59.1322 C   0  0  0  0  0  0  0  0  0  0  0  0
   32.7646   37.4324   58.3100 C   0  0  0  0  0  0  0  0  0  0  0  0
   33.0799   37.5403   56.9698 C   0  0  0  0  0  0  0  0  0  0  0  0
   33.4826   38.7560   56.4483 C   0  0  0  0  0  0  0  0  0  0  0  0
   33.5661   39.8687   57.2651 C   0  0  0  0  0  0  0  0  0  0  0  0
   33.2473   39.7690   58.6051 C   0  0  0  0  0  0  0  0  0  0  0  0
   30.8145   37.9835   62.1802 C   0  0  2  0  0  0  0  0  0  0  0  0
   30.2777   38.9005   61.9371 H   0  0  0  0  0  0  0  0  0  0  0  0
   31.7760   38.2486   63.2034 O   0  0  0  0  0  0  0  0  0  0  0  0
   29.8225   36.9248   62.6718 C   0  0  1  0  0  0  0  0  0  0  0  0
   29.3514   37.2667   63.5933 H   0  0  0  0  0  0  0  0  0  0  0  0
   28.8228   36.7066   61.6743 O   0  0  0  0  0  0  0  0  0  0  0  0
   30.5767   35.6180   62.9359 C   0  0  2  0  0  0  0  0  0  0  0  0
   29.8699   34.8433   63.2333 H   0  0  0  0  0  0  0  0  0  0  0  0
   31.5319   35.8190   63.9795 O   0  0  0  0  0  0  0  0  0  0  0  0
   30.5406   32.6481   61.6992 H   0  0  0  0  0  0  0  0  0  0  0  0
   32.6187   33.6087   61.0182 H   0  0  0  0  0  0  0  0  0  0  0  0
   32.8360   34.1084   62.7126 H   0  0  0  0  0  0  0  0  0  0  0  0
   32.9519   39.0233   61.1347 H   0  0  0  0  0  0  0  0  0  0  0  0
   32.4544   36.4816   58.7176 H   0  0  0  0  0  0  0  0  0  0  0  0
   33.0157   36.6732   56.3291 H   0  0  0  0  0  0  0  0  0  0  0  0
   33.7329   38.8366   55.4007 H   0  0  0  0  0  0  0  0  0  0  0  0
   33.8814   40.8166   56.8547 H   0  0  0  0  0  0  0  0  0  0  0  0
   33.3123   40.6385   59.2424 H   0  0  0  0  0  0  0  0  0  0  0  0
   32.4398   38.9077   62.9582 H   0  0  0  0  0  0  0  0  0  0  0  0
   29.1735   36.4038   60.8256 H   0  0  0  0  0  0  0  0  0  0  0  0
   31.1430   36.0937   64.8212 H   0  0  0  0  0  0  0  0  0  0  0  0
  1  2  1  0  0  0  0
  1 24  1  0  0  0  0
  2  3  1  0  0  0  0
  2 25  1  0  0  0  0
  2 26  1  0  0  0  0
  3  4  1  6  0  0  0
  3 21  1  0  0  0  0
  3  5  1  0  0  0  0
  5  6  1  0  0  0  0
  6  7  1  6  0  0  0
  6  8  1  0  0  0  0
  6 15  1  0  0  0  0
  8  9  1  0  0  0  0
  8 27  1  0  0  0  0
  9 14  2  0  0  0  0
  9 10  1  0  0  0  0
 10 11  2  0  0  0  0
 10 28  1  0  0  0  0
 11 12  1  0  0  0  0
 11 29  1  0  0  0  0
 12 13  2  0  0  0  0
 12 30  1  0  0  0  0
 13 14  1  0  0  0  0
 13 31  1  0  0  0  0
 14 32  1  0  0  0  0
 15 16  1  6  0  0  0
 15 17  1  0  0  0  0
 15 18  1  0  0  0  0
 17 33  1  0  0  0  0
 18 19  1  1  0  0  0
 18 20  1  0  0  0  0
 18 21  1  0  0  0  0
 20 34  1  0  0  0  0
 21 22  1  1  0  0  0
 21 23  1  0  0  0  0
 23 35  1  0  0  0  0
M  END
$$$$
