ZINC000000001189      none
 OpenBabel11202420153D

 35 35  0  0  0  0  0  0  0  0999 V2000
   29.0409   34.7575   66.5773 C   0  0  0  0  0  0  0  0  0  0  0  0
   28.3419   34.2190   65.3274 C   0  0  0  0  0  0  0  0  0  0  0  0
   29.2925   33.4684   64.5267 O   0  0  0  0  0  0  0  0  0  0  0  0
   29.9831   34.1535   63.5959 C   0  0  0  0  0  0  0  0  0  0  0  0
   29.7965   35.3461   63.4565 O   0  0  0  0  0  0  0  0  0  0  0  0
   30.8815   33.5166   62.8189 N   0  0  0  0  0  0  0  0  0  0  0  0
   31.6330   34.2621   61.8060 C   0  0  0  0  0  0  0  0  0  0  0  0
   32.4475   35.3653   62.4847 C   0  0  0  0  0  0  0  0  0  0  0  0
   32.5776   33.3108   61.0689 C   0  0  0  0  0  0  0  0  0  0  0  0
   30.6585   34.8890   60.8069 C   0  0  0  0  0  0  0  0  0  0  0  0
   31.3403   36.0216   60.0834 C   0  0  0  0  0  0  0  0  0  0  0  0
   31.2745   37.3054   60.5921 C   0  0  0  0  0  0  0  0  0  0  0  0
   31.9043   38.3437   59.9321 C   0  0  0  0  0  0  0  0  0  0  0  0
   32.5912   38.0999   58.7561 C   0  0  0  0  0  0  0  0  0  0  0  0
   33.3761   39.4048   57.9224 Cl  0  0  0  0  0  0  0  0  0  0  0  0
   32.6519   36.8159   58.2445 C   0  0  0  0  0  0  0  0  0  0  0  0
   32.0264   35.7775   58.9084 C   0  0  0  0  0  0  0  0  0  0  0  0
   28.3272   35.3209   67.1784 H   0  0  0  0  0  0  0  0  0  0  0  0
   29.4313   33.9248   67.1625 H   0  0  0  0  0  0  0  0  0  0  0  0
   29.8621   35.4102   66.2815 H   0  0  0  0  0  0  0  0  0  0  0  0
   27.9517   35.0517   64.7423 H   0  0  0  0  0  0  0  0  0  0  0  0
   27.5206   33.5662   65.6231 H   0  0  0  0  0  0  0  0  0  0  0  0
   31.0305   32.5646   62.9302 H   0  0  0  0  0  0  0  0  0  0  0  0
   33.0066   35.9200   61.7311 H   0  0  0  0  0  0  0  0  0  0  0  0
   31.7745   36.0431   63.0099 H   0  0  0  0  0  0  0  0  0  0  0  0
   33.1417   34.9187   63.1966 H   0  0  0  0  0  0  0  0  0  0  0  0
   33.2718   32.8642   61.7808 H   0  0  0  0  0  0  0  0  0  0  0  0
   31.9973   32.5248   60.5855 H   0  0  0  0  0  0  0  0  0  0  0  0
   33.1367   33.8655   60.3154 H   0  0  0  0  0  0  0  0  0  0  0  0
   30.3426   34.1352   60.0857 H   0  0  0  0  0  0  0  0  0  0  0  0
   29.7872   35.2701   61.3394 H   0  0  0  0  0  0  0  0  0  0  0  0
   30.7345   37.4963   61.5077 H   0  0  0  0  0  0  0  0  0  0  0  0
   31.8566   39.3458   60.3319 H   0  0  0  0  0  0  0  0  0  0  0  0
   33.1876   36.6252   57.3264 H   0  0  0  0  0  0  0  0  0  0  0  0
   32.0735   34.7752   58.5090 H   0  0  0  0  0  0  0  0  0  0  0  0
  1  2  1  0  0  0  0
  1 18  1  0  0  0  0
  1 19  1  0  0  0  0
  1 20  1  0  0  0  0
  2  3  1  0  0  0  0
  2 21  1  0  0  0  0
  2 22  1  0  0  0  0
  3  4  1  0  0  0  0
  4  5  2  0  0  0  0
  4  6  1  0  0  0  0
  6  7  1  0  0  0  0
  6 23  1  0  0  0  0
  7  8  1  0  0  0  0
  7  9  1  0  0  0  0
  7 10  1  0  0  0  0
  8 24  1  0  0  0  0
  8 25  1  0  0  0  0
  8 26  1  0  0  0  0
  9 27  1  0  0  0  0
  9 28  1  0  0  0  0
  9 29  1  0  0  0  0
 10 11  1  0  0  0  0
 10 30  1  0  0  0  0
 10 31  1  0  0  0  0
 11 17  2  0  0  0  0
 11 12  1  0  0  0  0
 12 13  2  0  0  0  0
 12 32  1  0  0  0  0
 13 14  1  0  0  0  0
 13 33  1  0  0  0  0
 14 15  1  0  0  0  0
 14 16  2  0  0  0  0
 16 17  1  0  0  0  0
 16 34  1  0  0  0  0
 17 35  1  0  0  0  0
M  END
$$$$
