ZINC000000056465      none
 OpenBabel11202420153D

 29 30  0  0  0  0  0  0  0  0999 V2000
   33.2748   40.7798   59.1550 N   0  0  0  0  0  0  0  0  0  0  0  0
   33.1859   39.6044   58.4296 C   0  0  0  0  0  0  0  0  0  0  0  0
   33.6062   39.5874   57.1732 N   0  0  0  0  0  0  0  0  0  0  0  0
   33.5373   38.4815   56.4470 C   0  0  0  0  0  0  0  0  0  0  0  0
   33.0245   37.3311   57.0145 C   0  0  0  0  0  0  0  0  0  0  0  0
   32.5838   37.3811   58.3385 C   0  0  0  0  0  0  0  0  0  0  0  0
   32.0563   36.2526   58.9472 N   0  0  0  0  0  0  0  0  0  0  0  0
   31.6233   36.3125   60.2750 C   0  0  0  0  0  0  0  0  0  0  0  0
   32.2034   35.4921   61.2341 C   0  0  0  0  0  0  0  0  0  0  0  0
   31.7738   35.5542   62.5450 C   0  0  0  0  0  0  0  0  0  0  0  0
   30.7670   36.4319   62.9035 C   0  0  0  0  0  0  0  0  0  0  0  0
   30.2213   36.5075   64.5772 S   0  0  0  0  0  0  0  0  0  0  0  0
   31.1162   35.4092   65.4346 N   0  0  0  0  0  0  0  0  0  0  0  0
   28.8836   36.0284   64.5850 O   0  0  0  0  0  0  0  0  0  0  0  0
   30.5900   37.7915   65.0617 O   0  0  0  0  0  0  0  0  0  0  0  0
   30.1837   37.2464   61.9502 C   0  0  0  0  0  0  0  0  0  0  0  0
   30.6124   37.1931   60.6384 C   0  0  0  0  0  0  0  0  0  0  0  0
   32.6824   38.5250   59.0086 N   0  0  0  0  0  0  0  0  0  0  0  0
   32.9703   40.8058   60.0756 H   0  0  0  0  0  0  0  0  0  0  0  0
   33.6416   41.5776   58.7427 H   0  0  0  0  0  0  0  0  0  0  0  0
   33.8823   38.4782   55.4236 H   0  0  0  0  0  0  0  0  0  0  0  0
   32.9615   36.4152   56.4456 H   0  0  0  0  0  0  0  0  0  0  0  0
   31.9875   35.4216   58.4517 H   0  0  0  0  0  0  0  0  0  0  0  0
   32.9895   34.8061   60.9547 H   0  0  0  0  0  0  0  0  0  0  0  0
   32.2246   34.9168   63.2913 H   0  0  0  0  0  0  0  0  0  0  0  0
   30.6752   34.6798   65.8973 H   0  0  0  0  0  0  0  0  0  0  0  0
   32.0816   35.4956   65.4743 H   0  0  0  0  0  0  0  0  0  0  0  0
   29.3946   37.9276   62.2326 H   0  0  0  0  0  0  0  0  0  0  0  0
   30.1590   37.8321   59.8951 H   0  0  0  0  0  0  0  0  0  0  0  0
  1  2  1  0  0  0  0
  1 19  1  0  0  0  0
  1 20  1  0  0  0  0
  2 18  2  0  0  0  0
  2  3  1  0  0  0  0
  3  4  2  0  0  0  0
  4  5  1  0  0  0  0
  4 21  1  0  0  0  0
  5  6  2  0  0  0  0
  5 22  1  0  0  0  0
  6  7  1  0  0  0  0
  6 18  1  0  0  0  0
  7  8  1  0  0  0  0
  7 23  1  0  0  0  0
  8 17  2  0  0  0  0
  8  9  1  0  0  0  0
  9 10  2  0  0  0  0
  9 24  1  0  0  0  0
 10 11  1  0  0  0  0
 10 25  1  0  0  0  0
 11 12  1  0  0  0  0
 11 16  2  0  0  0  0
 12 13  1  0  0  0  0
 12 14  2  0  0  0  0
 12 15  2  0  0  0  0
 13 26  1  0  0  0  0
 13 27  1  0  0  0  0
 16 17  1  0  0  0  0
 16 28  1  0  0  0  0
 17 29  1  0  0  0  0
M  END
$$$$
