ZINC000000048820      none
 OpenBabel11202420153D

 21 22  0  0  0  0  0  0  0  0999 V2000
   33.0234   39.5678   59.1480 N   0  0  0  0  0  0  0  0  0  0  0  0
   32.9295   38.4857   58.8150 C   0  0  0  0  0  0  0  0  0  0  0  0
   32.8112   37.1218   58.3953 C   0  0  0  0  0  0  0  0  0  0  0  0
   32.3675   36.1284   59.1386 N   0  0  0  0  0  0  0  0  0  0  0  0
   32.4115   34.9720   58.3430 N   0  0  0  0  0  0  0  0  0  0  0  0
   32.1459   34.0763   58.6040 H   0  0  0  0  0  0  0  0  0  0  0  0
   32.9040   35.3569   57.1346 C   0  0  0  0  0  0  0  0  0  0  0  0
   33.1338   34.4758   55.9678 C   0  0  0  0  0  0  0  0  0  0  0  0
   32.4730   34.7211   54.7638 C   0  0  0  0  0  0  0  0  0  0  0  0
   32.6911   33.8961   53.6800 C   0  0  0  0  0  0  0  0  0  0  0  0
   33.5629   32.8267   53.7852 C   0  0  0  0  0  0  0  0  0  0  0  0
   34.2215   32.5785   54.9759 C   0  0  0  0  0  0  0  0  0  0  0  0
   35.1528   31.4328   55.0799 N   0  0  0  0  0  0  0  0  0  0  0  0
   35.3386   30.7098   54.1176 O   0  0  0  0  0  0  0  0  0  0  0  0
   35.7334   31.2132   56.1279 O   0  0  0  0  0  0  0  0  0  0  0  0
   34.0116   33.3967   56.0674 C   0  0  0  0  0  0  0  0  0  0  0  0
   33.1344   36.6501   57.1840 N   0  0  0  0  0  0  0  0  0  0  0  0
   31.7886   35.5526   54.6820 H   0  0  0  0  0  0  0  0  0  0  0  0
   32.1801   34.0849   52.7474 H   0  0  0  0  0  0  0  0  0  0  0  0
   33.7298   32.1832   52.9340 H   0  0  0  0  0  0  0  0  0  0  0  0
   34.5260   33.2015   56.9968 H   0  0  0  0  0  0  0  0  0  0  0  0
  1  2  3  0  0  0  0
  2  3  1  0  0  0  0
  3 17  1  0  0  0  0
  3  4  2  0  0  0  0
  4  5  1  0  0  0  0
  5  6  1  0  0  0  0
  5  7  1  0  0  0  0
  7  8  1  0  0  0  0
  7 17  2  0  0  0  0
  8 16  2  0  0  0  0
  8  9  1  0  0  0  0
  9 10  2  0  0  0  0
  9 18  1  0  0  0  0
 10 11  1  0  0  0  0
 10 19  1  0  0  0  0
 11 12  2  0  0  0  0
 11 20  1  0  0  0  0
 12 13  1  0  0  0  0
 12 16  1  0  0  0  0
 13 14  2  0  0  0  0
 13 15  2  0  0  0  0
 16 21  1  0  0  0  0
M  END
$$$$
