ZINC000000011267      none
 OpenBabel11202420153D

 44 46  0  0  0  0  0  0  0  0999 V2000
   29.3348   35.7239   64.9826 O   0  0  0  0  0  0  0  0  0  0  0  0
   30.2131   36.2069   64.2999 C   0  0  0  0  0  0  0  0  0  0  0  0
   31.1157   37.2174   64.8704 C   0  0  0  0  0  0  0  0  0  0  0  0
   30.7933   38.5765   64.7841 C   0  0  0  0  0  0  0  0  0  0  0  0
   31.6408   39.5179   65.3253 C   0  0  0  0  0  0  0  0  0  0  0  0
   32.8170   39.1220   65.9452 C   0  0  0  0  0  0  0  0  0  0  0  0
   33.6468   40.0508   66.4687 F   0  0  0  0  0  0  0  0  0  0  0  0
   33.1450   37.7769   66.0295 C   0  0  0  0  0  0  0  0  0  0  0  0
   32.3037   36.8249   65.4970 C   0  0  0  0  0  0  0  0  0  0  0  0
   30.3792   35.7712   62.8669 C   0  0  0  0  0  0  0  0  0  0  0  0
   30.2195   36.9813   61.9424 C   0  0  0  0  0  0  0  0  0  0  0  0
   30.4494   36.5444   60.4938 C   0  0  0  0  0  0  0  0  0  0  0  0
   31.7976   35.9781   60.3601 N   0  0  0  0  0  0  0  0  0  0  0  0
   32.1044   35.6749   58.9558 C   0  0  0  0  0  0  0  0  0  0  0  0
   32.5169   36.9599   58.2351 C   0  0  0  0  0  0  0  0  0  0  0  0
   32.8316   36.6488   56.7944 C   0  0  0  0  0  0  0  0  0  0  0  0
   33.2289   37.6660   55.9469 C   0  0  0  0  0  0  0  0  0  0  0  0
   33.5203   37.3682   54.6247 C   0  0  0  0  0  0  0  0  0  0  0  0
   33.3911   36.0546   54.2000 C   0  0  0  0  0  0  0  0  0  0  0  0
   32.9891   35.0908   55.1049 C   0  0  0  0  0  0  0  0  0  0  0  0
   32.7245   35.4095   56.3570 N   0  0  0  0  0  0  0  0  0  0  0  0
   31.9592   34.7866   61.2031 C   0  0  0  0  0  0  0  0  0  0  0  0
   31.7745   35.1711   62.6729 C   0  0  0  0  0  0  0  0  0  0  0  0
   29.8801   38.8862   64.2977 H   0  0  0  0  0  0  0  0  0  0  0  0
   31.3912   40.5668   65.2629 H   0  0  0  0  0  0  0  0  0  0  0  0
   34.0623   37.4753   66.5134 H   0  0  0  0  0  0  0  0  0  0  0  0
   32.5607   35.7780   65.5628 H   0  0  0  0  0  0  0  0  0  0  0  0
   29.6234   35.0244   62.6233 H   0  0  0  0  0  0  0  0  0  0  0  0
   30.9495   37.7445   62.2125 H   0  0  0  0  0  0  0  0  0  0  0  0
   29.2131   37.3871   62.0448 H   0  0  0  0  0  0  0  0  0  0  0  0
   30.3505   37.4066   59.8343 H   0  0  0  0  0  0  0  0  0  0  0  0
   29.7104   35.7912   60.2202 H   0  0  0  0  0  0  0  0  0  0  0  0
   31.2216   35.2551   58.4736 H   0  0  0  0  0  0  0  0  0  0  0  0
   32.9208   34.9544   58.9098 H   0  0  0  0  0  0  0  0  0  0  0  0
   33.3997   37.3797   58.7173 H   0  0  0  0  0  0  0  0  0  0  0  0
   31.7003   37.6805   58.2810 H   0  0  0  0  0  0  0  0  0  0  0  0
   33.3145   38.6791   56.3110 H   0  0  0  0  0  0  0  0  0  0  0  0
   33.8367   38.1419   53.9406 H   0  0  0  0  0  0  0  0  0  0  0  0
   33.6064   35.7872   53.1759 H   0  0  0  0  0  0  0  0  0  0  0  0
   32.8900   34.0647   54.7831 H   0  0  0  0  0  0  0  0  0  0  0  0
   31.2133   34.0418   60.9261 H   0  0  0  0  0  0  0  0  0  0  0  0
   32.9570   34.3722   61.0588 H   0  0  0  0  0  0  0  0  0  0  0  0
   32.5289   35.9058   62.9544 H   0  0  0  0  0  0  0  0  0  0  0  0
   31.8790   34.2837   63.2971 H   0  0  0  0  0  0  0  0  0  0  0  0
  1  2  2  0  0  0  0
  2  3  1  0  0  0  0
  2 10  1  0  0  0  0
  3  9  2  0  0  0  0
  3  4  1  0  0  0  0
  4  5  2  0  0  0  0
  4 24  1  0  0  0  0
  5  6  1  0  0  0  0
  5 25  1  0  0  0  0
  6  7  1  0  0  0  0
  6  8  2  0  0  0  0
  8  9  1  0  0  0  0
  8 26  1  0  0  0  0
  9 27  1  0  0  0  0
 10 23  1  0  0  0  0
 10 11  1  0  0  0  0
 10 28  1  0  0  0  0
 11 12  1  0  0  0  0
 11 29  1  0  0  0  0
 11 30  1  0  0  0  0
 12 13  1  0  0  0  0
 12 31  1  0  0  0  0
 12 32  1  0  0  0  0
 13 14  1  0  0  0  0
 13 22  1  0  0  0  0
 14 15  1  0  0  0  0
 14 33  1  0  0  0  0
 14 34  1  0  0  0  0
 15 16  1  0  0  0  0
 15 35  1  0  0  0  0
 15 36  1  0  0  0  0
 16 21  2  0  0  0  0
 16 17  1  0  0  0  0
 17 18  2  0  0  0  0
 17 37  1  0  0  0  0
 18 19  1  0  0  0  0
 18 38  1  0  0  0  0
 19 20  2  0  0  0  0
 19 39  1  0  0  0  0
 20 21  1  0  0  0  0
 20 40  1  0  0  0  0
 22 23  1  0  0  0  0
 22 41  1  0  0  0  0
 22 42  1  0  0  0  0
 23 43  1  0  0  0  0
 23 44  1  0  0  0  0
M  END
$$$$
