ZINC000000027800      none
 OpenBabel11202420153D

 32 33  0  0  0  0  0  0  0  0999 V2000
   28.8202   36.6404   60.1966 O   0  0  0  0  0  0  0  0  0  0  0  0
   29.9779   36.8590   60.4960 C   0  0  0  0  0  0  0  0  0  0  0  0
   31.0372   36.7660   59.4688 C   0  0  0  0  0  0  0  0  0  0  0  0
   31.3831   37.8888   58.7155 C   0  0  0  0  0  0  0  0  0  0  0  0
   32.3770   37.7970   57.7613 C   0  0  0  0  0  0  0  0  0  0  0  0
   32.8133   39.1941   56.8277 Cl  0  0  0  0  0  0  0  0  0  0  0  0
   33.0260   36.5929   57.5473 C   0  0  0  0  0  0  0  0  0  0  0  0
   32.6837   35.4744   58.2878 C   0  0  0  0  0  0  0  0  0  0  0  0
   33.5027   33.9688   58.0119 Cl  0  0  0  0  0  0  0  0  0  0  0  0
   31.6917   35.5538   59.2451 C   0  0  0  0  0  0  0  0  0  0  0  0
   30.2957   37.1862   61.7642 N   0  0  0  0  0  0  0  0  0  0  0  0
   31.6825   37.4344   62.0891 C   0  0  0  0  0  0  0  0  0  0  0  0
   32.3688   36.1162   62.5047 C   0  0  0  0  0  0  0  0  0  0  0  0
   31.8836   35.6822   63.8237 C   0  0  0  0  0  0  0  0  0  0  0  0
   30.3921   35.3649   63.8716 C   0  0  0  0  0  0  0  0  0  0  0  0
   29.6174   36.6376   64.1095 C   0  0  0  0  0  0  0  0  0  0  0  0
   29.2144   37.2706   62.7653 C   0  0  0  0  0  0  0  0  0  0  0  0
   30.8776   38.8285   58.8816 H   0  0  0  0  0  0  0  0  0  0  0  0
   33.8022   36.5258   56.7993 H   0  0  0  0  0  0  0  0  0  0  0  0
   31.4258   34.6807   59.8225 H   0  0  0  0  0  0  0  0  0  0  0  0
   32.1920   37.8440   61.2169 H   0  0  0  0  0  0  0  0  0  0  0  0
   31.7407   38.1477   62.9111 H   0  0  0  0  0  0  0  0  0  0  0  0
   33.4473   36.2677   62.5489 H   0  0  0  0  0  0  0  0  0  0  0  0
   32.1425   35.3471   61.7661 H   0  0  0  0  0  0  0  0  0  0  0  0
   32.0930   36.4710   64.5462 H   0  0  0  0  0  0  0  0  0  0  0  0
   32.4367   34.7909   64.1199 H   0  0  0  0  0  0  0  0  0  0  0  0
   30.1955   34.6626   64.6817 H   0  0  0  0  0  0  0  0  0  0  0  0
   30.0836   34.9231   62.9240 H   0  0  0  0  0  0  0  0  0  0  0  0
   30.2374   37.3390   64.6680 H   0  0  0  0  0  0  0  0  0  0  0  0
   28.7204   36.4123   64.6864 H   0  0  0  0  0  0  0  0  0  0  0  0
   28.9643   38.3188   62.9287 H   0  0  0  0  0  0  0  0  0  0  0  0
   28.3353   36.7532   62.3813 H   0  0  0  0  0  0  0  0  0  0  0  0
  1  2  2  0  0  0  0
  2  3  1  0  0  0  0
  2 11  1  0  0  0  0
  3 10  2  0  0  0  0
  3  4  1  0  0  0  0
  4  5  2  0  0  0  0
  4 18  1  0  0  0  0
  5  6  1  0  0  0  0
  5  7  1  0  0  0  0
  7  8  2  0  0  0  0
  7 19  1  0  0  0  0
  8  9  1  0  0  0  0
  8 10  1  0  0  0  0
 10 20  1  0  0  0  0
 11 17  1  0  0  0  0
 11 12  1  0  0  0  0
 12 13  1  0  0  0  0
 12 21  1  0  0  0  0
 12 22  1  0  0  0  0
 13 14  1  0  0  0  0
 13 23  1  0  0  0  0
 13 24  1  0  0  0  0
 14 15  1  0  0  0  0
 14 25  1  0  0  0  0
 14 26  1  0  0  0  0
 15 16  1  0  0  0  0
 15 27  1  0  0  0  0
 15 28  1  0  0  0  0
 16 17  1  0  0  0  0
 16 29  1  0  0  0  0
 16 30  1  0  0  0  0
 17 31  1  0  0  0  0
 17 32  1  0  0  0  0
M  END
$$$$
