ZINC000000013352      none
 OpenBabel11202420153D

 16 16  0  0  1  0  0  0  0  0999 V2000
   30.6992   37.1895   60.8133 C   0  0  0  0  0  0  0  0  0  0  0  0
   29.9199   36.8615   62.0885 C   0  0  2  0  0  0  0  0  0  0  0  0
   28.8708   37.8641   62.2999 N   0  0  0  0  0  0  0  0  0  0  0  0
   29.0947   38.9795   63.0061 C   0  0  0  0  0  0  0  0  0  0  0  0
   28.2218   39.8249   63.0307 O   0  0  0  0  0  0  0  0  0  0  0  0
   30.2235   39.2194   63.6876 N   0  0  0  0  0  0  0  0  0  0  0  0
   31.1552   38.2549   63.8534 C   0  0  0  0  0  0  0  0  0  0  0  0
   32.1942   38.4752   64.4400 O   0  0  0  0  0  0  0  0  0  0  0  0
   30.8525   36.8996   63.2830 C   0  0  0  0  0  0  0  0  0  0  0  0
   31.3269   35.8924   63.7514 O   0  0  0  0  0  0  0  0  0  0  0  0
   31.4937   36.4563   60.6743 H   0  0  0  0  0  0  0  0  0  0  0  0
   31.1346   38.1851   60.8996 H   0  0  0  0  0  0  0  0  0  0  0  0
   30.0245   37.1609   59.9577 H   0  0  0  0  0  0  0  0  0  0  0  0
   29.4722   35.8714   62.0021 H   0  0  0  0  0  0  0  0  0  0  0  0
   27.9915   37.7154   61.9182 H   0  0  0  0  0  0  0  0  0  0  0  0
   30.3742   40.0991   64.0675 H   0  0  0  0  0  0  0  0  0  0  0  0
  1  2  1  0  0  0  0
  1 11  1  0  0  0  0
  1 12  1  0  0  0  0
  1 13  1  0  0  0  0
  2  9  1  0  0  0  0
  2  3  1  0  0  0  0
  2 14  1  6  0  0  0
  3  4  1  0  0  0  0
  3 15  1  0  0  0  0
  4  5  2  0  0  0  0
  4  6  1  0  0  0  0
  6  7  1  0  0  0  0
  6 16  1  0  0  0  0
  7  8  2  0  0  0  0
  7  9  1  0  0  0  0
  9 10  2  0  0  0  0
M  END
$$$$
