ZINC000000022499      none
 OpenBabel11202420153D

 42 45  0  0  1  0  0  0  0  0999 V2000
   30.2451   39.3820   65.3937 C   0  0  0  0  0  0  0  0  0  0  0  0
   30.1114   38.4377   64.4654 C   0  0  0  0  0  0  0  0  0  0  0  0
   30.8967   37.1460   64.3659 C   0  0  0  0  0  0  0  0  0  0  0  0
   30.3256   36.4557   63.1161 C   0  0  1  0  0  0  0  0  0  0  0  0
   31.4296   36.2580   62.0755 C   0  0  0  0  0  0  0  0  0  0  0  0
   30.8859   35.6162   60.9203 O   0  0  0  0  0  0  0  0  0  0  0  0
   31.7403   35.3654   59.8945 C   0  0  0  0  0  0  0  0  0  0  0  0
   32.4241   34.1840   59.8434 C   0  0  0  0  0  0  0  0  0  0  0  0
   33.2988   33.9064   58.7967 C   0  0  0  0  0  0  0  0  0  0  0  0
   33.5074   34.8110   57.7999 C   0  0  0  0  0  0  0  0  0  0  0  0
   32.8276   36.0394   57.8209 C   0  0  0  0  0  0  0  0  0  0  0  0
   33.0176   36.9992   56.8087 C   0  0  0  0  0  0  0  0  0  0  0  0
   32.3227   38.1718   56.8942 C   0  0  0  0  0  0  0  0  0  0  0  0
   31.4555   38.3896   57.9629 C   0  0  0  0  0  0  0  0  0  0  0  0
   31.2817   37.4934   58.9036 N   0  0  0  0  0  0  0  0  0  0  0  0
   31.9309   36.3260   58.8794 C   0  0  0  0  0  0  0  0  0  0  0  0
   29.7243   35.1254   63.4900 C   0  0  0  0  0  0  0  0  0  0  0  0
   28.3923   35.0460   63.8510 C   0  0  0  0  0  0  0  0  0  0  0  0
   27.8397   33.8251   64.1902 C   0  0  0  0  0  0  0  0  0  0  0  0
   28.6214   32.6851   64.1769 C   0  0  0  0  0  0  0  0  0  0  0  0
   29.9546   32.7653   63.8206 C   0  0  0  0  0  0  0  0  0  0  0  0
   30.5062   33.9855   63.4776 C   0  0  0  0  0  0  0  0  0  0  0  0
   29.2988   37.3354   62.5910 O   0  0  0  0  0  0  0  0  0  0  0  0
   29.1734   38.4418   63.3358 C   0  0  0  0  0  0  0  0  0  0  0  0
   28.3825   39.3355   63.1059 O   0  0  0  0  0  0  0  0  0  0  0  0
   30.9748   39.2656   66.1812 H   0  0  0  0  0  0  0  0  0  0  0  0
   29.6238   40.2647   65.3593 H   0  0  0  0  0  0  0  0  0  0  0  0
   30.7329   36.5305   65.2505 H   0  0  0  0  0  0  0  0  0  0  0  0
   31.9592   37.3517   64.2365 H   0  0  0  0  0  0  0  0  0  0  0  0
   32.2200   35.6375   62.4977 H   0  0  0  0  0  0  0  0  0  0  0  0
   31.8404   37.2273   61.7930 H   0  0  0  0  0  0  0  0  0  0  0  0
   32.2800   33.4520   60.6242 H   0  0  0  0  0  0  0  0  0  0  0  0
   33.8237   32.9629   58.7777 H   0  0  0  0  0  0  0  0  0  0  0  0
   34.1927   34.5842   56.9966 H   0  0  0  0  0  0  0  0  0  0  0  0
   33.6936   36.8133   55.9873 H   0  0  0  0  0  0  0  0  0  0  0  0
   32.4454   38.9296   56.1345 H   0  0  0  0  0  0  0  0  0  0  0  0
   30.9124   39.3215   58.0178 H   0  0  0  0  0  0  0  0  0  0  0  0
   27.7825   35.9373   63.8649 H   0  0  0  0  0  0  0  0  0  0  0  0
   26.7981   33.7625   64.4689 H   0  0  0  0  0  0  0  0  0  0  0  0
   28.1905   31.7318   64.4452 H   0  0  0  0  0  0  0  0  0  0  0  0
   30.5654   31.8746   63.8107 H   0  0  0  0  0  0  0  0  0  0  0  0
   31.5479   34.0481   63.1997 H   0  0  0  0  0  0  0  0  0  0  0  0
  1  2  2  0  0  0  0
  1 26  1  0  0  0  0
  1 27  1  0  0  0  0
  2 24  1  0  0  0  0
  2  3  1  0  0  0  0
  3  4  1  0  0  0  0
  3 28  1  0  0  0  0
  3 29  1  0  0  0  0
  4  5  1  6  0  0  0
  4 17  1  0  0  0  0
  4 23  1  0  0  0  0
  5  6  1  0  0  0  0
  5 30  1  0  0  0  0
  5 31  1  0  0  0  0
  6  7  1  0  0  0  0
  7 16  2  0  0  0  0
  7  8  1  0  0  0  0
  8  9  2  0  0  0  0
  8 32  1  0  0  0  0
  9 10  1  0  0  0  0
  9 33  1  0  0  0  0
 10 11  2  0  0  0  0
 10 34  1  0  0  0  0
 11 16  1  0  0  0  0
 11 12  1  0  0  0  0
 12 13  2  0  0  0  0
 12 35  1  0  0  0  0
 13 14  1  0  0  0  0
 13 36  1  0  0  0  0
 14 15  2  0  0  0  0
 14 37  1  0  0  0  0
 15 16  1  0  0  0  0
 17 22  2  0  0  0  0
 17 18  1  0  0  0  0
 18 19  2  0  0  0  0
 18 38  1  0  0  0  0
 19 20  1  0  0  0  0
 19 39  1  0  0  0  0
 20 21  2  0  0  0  0
 20 40  1  0  0  0  0
 21 22  1  0  0  0  0
 21 41  1  0  0  0  0
 22 42  1  0  0  0  0
 23 24  1  0  0  0  0
 24 25  2  0  0  0  0
M  END
$$$$
