ZINC000000022501      none
 OpenBabel11202420153D

 29 30  0  0  0  0  0  0  0  0999 V2000
   30.9841   37.8962   60.0912 C   0  0  0  0  0  0  0  0  0  0  0  0
   32.3042   37.3896   59.8849 O   0  0  0  0  0  0  0  0  0  0  0  0
   32.6563   37.0856   58.6070 C   0  0  0  0  0  0  0  0  0  0  0  0
   33.2407   38.0438   57.7968 C   0  0  0  0  0  0  0  0  0  0  0  0
   33.4629   39.2935   58.2835 O   0  0  0  0  0  0  0  0  0  0  0  0
   33.5981   37.7393   56.4831 C   0  0  0  0  0  0  0  0  0  0  0  0
   34.2266   38.8022   55.6193 C   0  0  0  0  0  0  0  0  0  0  0  0
   33.3870   36.4957   55.9698 C   0  0  0  0  0  0  0  0  0  0  0  0
   32.8013   35.4978   56.7666 C   0  0  0  0  0  0  0  0  0  0  0  0
   32.5719   34.2054   56.2595 C   0  0  0  0  0  0  0  0  0  0  0  0
   32.0057   33.2425   57.0325 C   0  0  0  0  0  0  0  0  0  0  0  0
   31.6276   33.4868   58.3527 C   0  0  0  0  0  0  0  0  0  0  0  0
   31.0656   32.4967   59.0872 O   0  0  0  0  0  0  0  0  0  0  0  0
   31.8255   34.7503   58.9222 C   0  0  0  0  0  0  0  0  0  0  0  0
   31.4439   35.0093   60.2627 C   0  0  0  0  0  0  0  0  0  0  0  0
   30.2842   34.8830   60.5989 O   0  0  0  0  0  0  0  0  0  0  0  0
   32.4357   35.7990   58.1007 C   0  0  0  0  0  0  0  0  0  0  0  0
   30.2553   37.1591   59.7542 H   0  0  0  0  0  0  0  0  0  0  0  0
   30.8335   38.0972   61.1518 H   0  0  0  0  0  0  0  0  0  0  0  0
   30.8563   38.8186   59.5248 H   0  0  0  0  0  0  0  0  0  0  0  0
   33.1802   39.4147   59.2002 H   0  0  0  0  0  0  0  0  0  0  0  0
   33.4460   39.3491   55.0904 H   0  0  0  0  0  0  0  0  0  0  0  0
   34.7926   39.4918   56.2457 H   0  0  0  0  0  0  0  0  0  0  0  0
   34.8959   38.3348   54.8970 H   0  0  0  0  0  0  0  0  0  0  0  0
   33.6701   36.2766   54.9508 H   0  0  0  0  0  0  0  0  0  0  0  0
   32.8506   33.9756   55.2417 H   0  0  0  0  0  0  0  0  0  0  0  0
   31.8435   32.2605   56.6131 H   0  0  0  0  0  0  0  0  0  0  0  0
   30.9683   31.6606   58.6113 H   0  0  0  0  0  0  0  0  0  0  0  0
   32.1848   35.3191   60.9849 H   0  0  0  0  0  0  0  0  0  0  0  0
  1  2  1  0  0  0  0
  1 18  1  0  0  0  0
  1 19  1  0  0  0  0
  1 20  1  0  0  0  0
  2  3  1  0  0  0  0
  3 17  2  0  0  0  0
  3  4  1  0  0  0  0
  4  5  1  0  0  0  0
  4  6  2  0  0  0  0
  5 21  1  0  0  0  0
  6  7  1  0  0  0  0
  6  8  1  0  0  0  0
  7 22  1  0  0  0  0
  7 23  1  0  0  0  0
  7 24  1  0  0  0  0
  8  9  2  0  0  0  0
  8 25  1  0  0  0  0
  9 17  1  0  0  0  0
  9 10  1  0  0  0  0
 10 11  2  0  0  0  0
 10 26  1  0  0  0  0
 11 12  1  0  0  0  0
 11 27  1  0  0  0  0
 12 13  1  0  0  0  0
 12 14  2  0  0  0  0
 13 28  1  0  0  0  0
 14 15  1  0  0  0  0
 14 17  1  0  0  0  0
 15 16  2  0  0  0  0
 15 29  1  0  0  0  0
M  END
$$$$
