ZINC000000001379      none
 OpenBabel11202420153D

 40 41  0  0  0  0  0  0  0  0999 V2000
   35.1924   38.0289   52.0419 C   0  0  0  0  0  0  0  0  0  0  0  0
   35.4309   38.9484   53.2413 C   0  0  0  0  0  0  0  0  0  0  0  0
   34.8018   38.3794   54.4199 O   0  0  0  0  0  0  0  0  0  0  0  0
   34.3618   39.2432   55.3557 C   0  0  0  0  0  0  0  0  0  0  0  0
   34.4999   40.4391   55.1915 O   0  0  0  0  0  0  0  0  0  0  0  0
   33.7126   38.7371   56.5796 C   0  0  0  0  0  0  0  0  0  0  0  0
   33.2479   39.6258   57.5560 C   0  0  0  0  0  0  0  0  0  0  0  0
   32.6727   39.1966   58.6548 N   0  0  0  0  0  0  0  0  0  0  0  0
   32.4940   37.9040   58.9015 C   0  0  0  0  0  0  0  0  0  0  0  0
   32.9249   36.9331   57.9736 C   0  0  0  0  0  0  0  0  0  0  0  0
   32.5991   35.6692   58.5137 C   0  0  0  0  0  0  0  0  0  0  0  0
   32.0216   35.8489   59.6667 N   0  0  0  0  0  0  0  0  0  0  0  0
   31.9363   37.2178   59.9455 N   0  0  0  0  0  0  0  0  0  0  0  0
   31.3499   37.8136   61.1486 C   0  0  0  0  0  0  0  0  0  0  0  0
   30.8377   36.7042   62.0693 C   0  0  0  0  0  0  0  0  0  0  0  0
   33.5474   37.3531   56.7803 C   0  0  0  0  0  0  0  0  0  0  0  0
   33.9812   36.4466   55.8515 N   0  0  0  0  0  0  0  0  0  0  0  0
   33.3945   35.3618   55.7227 N   0  0  0  0  0  0  0  0  0  0  0  0
   33.8589   34.3913   54.7284 C   0  0  0  0  0  0  0  0  0  0  0  0
   33.5466   32.9746   55.2141 C   0  0  0  0  0  0  0  0  0  0  0  0
   33.1463   34.6434   53.3982 C   0  0  0  0  0  0  0  0  0  0  0  0
   35.6645   38.4560   51.1572 H   0  0  0  0  0  0  0  0  0  0  0  0
   35.6217   37.0478   52.2450 H   0  0  0  0  0  0  0  0  0  0  0  0
   34.1209   37.9279   51.8688 H   0  0  0  0  0  0  0  0  0  0  0  0
   35.0016   39.9293   53.0381 H   0  0  0  0  0  0  0  0  0  0  0  0
   36.5023   39.0493   53.4143 H   0  0  0  0  0  0  0  0  0  0  0  0
   33.3691   40.6880   57.4038 H   0  0  0  0  0  0  0  0  0  0  0  0
   32.7964   34.7145   58.0489 H   0  0  0  0  0  0  0  0  0  0  0  0
   32.1074   38.3983   61.6707 H   0  0  0  0  0  0  0  0  0  0  0  0
   30.5211   38.4626   60.8657 H   0  0  0  0  0  0  0  0  0  0  0  0
   31.6665   36.0551   62.3523 H   0  0  0  0  0  0  0  0  0  0  0  0
   30.4014   37.1475   62.9645 H   0  0  0  0  0  0  0  0  0  0  0  0
   30.0802   36.1196   61.5472 H   0  0  0  0  0  0  0  0  0  0  0  0
   34.9348   34.4993   54.5904 H   0  0  0  0  0  0  0  0  0  0  0  0
   32.4708   32.8666   55.3521 H   0  0  0  0  0  0  0  0  0  0  0  0
   33.8921   32.2525   54.4742 H   0  0  0  0  0  0  0  0  0  0  0  0
   34.0543   32.7949   56.1617 H   0  0  0  0  0  0  0  0  0  0  0  0
   33.4919   33.9213   52.6584 H   0  0  0  0  0  0  0  0  0  0  0  0
   32.0704   34.5355   53.5363 H   0  0  0  0  0  0  0  0  0  0  0  0
   33.3688   35.6527   53.0523 H   0  0  0  0  0  0  0  0  0  0  0  0
  1  2  1  0  0  0  0
  1 22  1  0  0  0  0
  1 23  1  0  0  0  0
  1 24  1  0  0  0  0
  2  3  1  0  0  0  0
  2 25  1  0  0  0  0
  2 26  1  0  0  0  0
  3  4  1  0  0  0  0
  4  5  2  0  0  0  0
  4  6  1  0  0  0  0
  6 16  2  0  0  0  0
  6  7  1  0  0  0  0
  7  8  2  0  0  0  0
  7 27  1  0  0  0  0
  8  9  1  0  0  0  0
  9 13  1  0  0  0  0
  9 10  2  0  0  0  0
 10 11  1  0  0  0  0
 10 16  1  0  0  0  0
 11 12  2  0  0  0  0
 11 28  1  0  0  0  0
 12 13  1  0  0  0  0
 13 14  1  0  0  0  0
 14 15  1  0  0  0  0
 14 29  1  0  0  0  0
 14 30  1  0  0  0  0
 15 31  1  0  0  0  0
 15 32  1  0  0  0  0
 15 33  1  0  0  0  0
 16 17  1  0  0  0  0
 17 18  2  0  0  0  0
 18 19  1  0  0  0  0
 19 20  1  0  0  0  0
 19 21  1  0  0  0  0
 19 34  1  0  0  0  0
 20 35  1  0  0  0  0
 20 36  1  0  0  0  0
 20 37  1  0  0  0  0
 21 38  1  0  0  0  0
 21 39  1  0  0  0  0
 21 40  1  0  0  0  0
M  END
$$$$
