ZINC000000044744      none
 OpenBabel11202420153D

 43 46  0  0  0  0  0  0  0  0999 V2000
   32.3618   34.2971   58.4762 N   0  0  0  0  0  0  0  0  0  0  0  0
   32.4422   35.5928   58.9673 C   0  0  0  0  0  0  0  0  0  0  0  0
   32.8505   36.6438   58.2135 C   0  0  0  0  0  0  0  0  0  0  0  0
   33.2408   36.5525   56.8544 C   0  0  0  0  0  0  0  0  0  0  0  0
   33.2230   35.4751   56.2868 O   0  0  0  0  0  0  0  0  0  0  0  0
   33.6318   37.6578   56.1899 N   0  0  0  0  0  0  0  0  0  0  0  0
   34.0169   37.5677   54.8486 C   0  0  0  0  0  0  0  0  0  0  0  0
   34.9557   38.4521   54.3331 C   0  0  0  0  0  0  0  0  0  0  0  0
   35.3381   38.3567   53.0093 C   0  0  0  0  0  0  0  0  0  0  0  0
   34.7790   37.3892   52.1946 C   0  0  0  0  0  0  0  0  0  0  0  0
   33.8399   36.5107   52.7032 C   0  0  0  0  0  0  0  0  0  0  0  0
   33.4574   36.5971   54.0275 C   0  0  0  0  0  0  0  0  0  0  0  0
   32.8315   38.1297   59.1422 S   0  0  0  0  0  0  0  0  0  0  0  0
   32.2560   37.3098   60.5891 C   0  0  0  0  0  0  0  0  0  0  0  0
   31.9779   37.8036   61.7992 N   0  0  0  0  0  0  0  0  0  0  0  0
   31.5548   37.0402   62.7843 C   0  0  0  0  0  0  0  0  0  0  0  0
   31.3805   35.6867   62.6075 C   0  0  0  0  0  0  0  0  0  0  0  0
   31.6427   35.1117   61.3844 C   0  0  0  0  0  0  0  0  0  0  0  0
   32.0961   35.9434   60.3341 C   0  0  0  0  0  0  0  0  0  0  0  0
   30.9083   34.8208   63.7568 C   0  0  0  0  0  0  0  0  0  0  0  0
   29.4357   35.1383   64.0297 C   0  0  0  0  0  0  0  0  0  0  0  0
   29.3044   36.3279   64.9600 C   0  0  0  0  0  0  0  0  0  0  0  0
   29.7463   37.6468   64.3575 C   0  0  0  0  0  0  0  0  0  0  0  0
   31.2595   37.6685   64.1326 C   0  0  0  0  0  0  0  0  0  0  0  0
   32.6039   34.1116   57.5554 H   0  0  0  0  0  0  0  0  0  0  0  0
   32.0635   33.5772   59.0539 H   0  0  0  0  0  0  0  0  0  0  0  0
   33.6461   38.5159   56.6418 H   0  0  0  0  0  0  0  0  0  0  0  0
   35.3891   39.2110   54.9676 H   0  0  0  0  0  0  0  0  0  0  0  0
   36.0712   39.0411   52.6090 H   0  0  0  0  0  0  0  0  0  0  0  0
   35.0762   37.3198   51.1586 H   0  0  0  0  0  0  0  0  0  0  0  0
   33.4049   35.7565   52.0642 H   0  0  0  0  0  0  0  0  0  0  0  0
   32.7237   35.9110   54.4241 H   0  0  0  0  0  0  0  0  0  0  0  0
   31.5047   34.0516   61.2304 H   0  0  0  0  0  0  0  0  0  0  0  0
   31.5004   35.0363   64.6463 H   0  0  0  0  0  0  0  0  0  0  0  0
   31.0128   33.7692   63.4896 H   0  0  0  0  0  0  0  0  0  0  0  0
   28.9609   34.2707   64.4879 H   0  0  0  0  0  0  0  0  0  0  0  0
   28.9370   35.3637   63.0871 H   0  0  0  0  0  0  0  0  0  0  0  0
   28.2607   36.4178   65.2610 H   0  0  0  0  0  0  0  0  0  0  0  0
   29.9045   36.1387   65.8500 H   0  0  0  0  0  0  0  0  0  0  0  0
   29.2405   37.7913   63.4028 H   0  0  0  0  0  0  0  0  0  0  0  0
   29.4739   38.4578   65.0329 H   0  0  0  0  0  0  0  0  0  0  0  0
   31.6164   38.6983   64.1429 H   0  0  0  0  0  0  0  0  0  0  0  0
   31.7550   37.1013   64.9206 H   0  0  0  0  0  0  0  0  0  0  0  0
  1  2  1  0  0  0  0
  1 25  1  0  0  0  0
  1 26  1  0  0  0  0
  2 19  1  0  0  0  0
  2  3  2  0  0  0  0
  3  4  1  0  0  0  0
  3 13  1  0  0  0  0
  4  5  2  0  0  0  0
  4  6  1  0  0  0  0
  6  7  1  0  0  0  0
  6 27  1  0  0  0  0
  7 12  2  0  0  0  0
  7  8  1  0  0  0  0
  8  9  2  0  0  0  0
  8 28  1  0  0  0  0
  9 10  1  0  0  0  0
  9 29  1  0  0  0  0
 10 11  2  0  0  0  0
 10 30  1  0  0  0  0
 11 12  1  0  0  0  0
 11 31  1  0  0  0  0
 12 32  1  0  0  0  0
 13 14  1  0  0  0  0
 14 19  2  0  0  0  0
 14 15  1  0  0  0  0
 15 16  2  0  0  0  0
 16 24  1  0  0  0  0
 16 17  1  0  0  0  0
 17 18  2  0  0  0  0
 17 20  1  0  0  0  0
 18 19  1  0  0  0  0
 18 33  1  0  0  0  0
 20 21  1  0  0  0  0
 20 34  1  0  0  0  0
 20 35  1  0  0  0  0
 21 22  1  0  0  0  0
 21 36  1  0  0  0  0
 21 37  1  0  0  0  0
 22 23  1  0  0  0  0
 22 38  1  0  0  0  0
 22 39  1  0  0  0  0
 23 24  1  0  0  0  0
 23 40  1  0  0  0  0
 23 41  1  0  0  0  0
 24 42  1  0  0  0  0
 24 43  1  0  0  0  0
M  END
$$$$
