ZINC000000030386      none
 OpenBabel11202420163D

 42 43  0  0  0  0  0  0  0  0999 V2000
   29.6028   39.0989   67.4465 C   0  0  0  0  0  0  0  0  0  0  0  0
   30.0403   38.4863   66.1411 C   0  0  0  0  0  0  0  0  0  0  0  0
   31.0370   37.7967   66.0986 O   0  0  0  0  0  0  0  0  0  0  0  0
   29.3239   38.7047   65.0206 N   0  0  0  0  0  0  0  0  0  0  0  0
   29.7286   38.1380   63.8125 C   0  0  0  0  0  0  0  0  0  0  0  0
   30.5959   38.8333   62.9757 C   0  0  0  0  0  0  0  0  0  0  0  0
   30.9972   38.2769   61.7822 C   0  0  0  0  0  0  0  0  0  0  0  0
   30.5325   37.0119   61.4114 C   0  0  0  0  0  0  0  0  0  0  0  0
   30.9602   36.4127   60.1325 C   0  0  0  0  0  0  0  0  0  0  0  0
   30.2425   35.6107   59.5668 O   0  0  0  0  0  0  0  0  0  0  0  0
   32.1464   36.7544   59.5917 N   0  0  0  0  0  0  0  0  0  0  0  0
   32.5517   36.1866   58.3796 C   0  0  0  0  0  0  0  0  0  0  0  0
   32.8037   36.9978   57.2807 C   0  0  0  0  0  0  0  0  0  0  0  0
   32.6407   38.4918   57.3928 C   0  0  0  0  0  0  0  0  0  0  0  0
   33.2043   36.4339   56.0853 C   0  0  0  0  0  0  0  0  0  0  0  0
   33.3546   35.0631   55.9817 C   0  0  0  0  0  0  0  0  0  0  0  0
   33.7917   34.4513   54.6757 C   0  0  0  0  0  0  0  0  0  0  0  0
   33.1040   34.2526   57.0738 C   0  0  0  0  0  0  0  0  0  0  0  0
   32.7032   34.8101   58.2720 C   0  0  0  0  0  0  0  0  0  0  0  0
   32.4308   33.9260   59.4616 C   0  0  0  0  0  0  0  0  0  0  0  0
   29.6573   36.3186   62.2520 C   0  0  0  0  0  0  0  0  0  0  0  0
   29.2642   36.8785   63.4466 C   0  0  0  0  0  0  0  0  0  0  0  0
   28.9298   38.4137   67.9619 H   0  0  0  0  0  0  0  0  0  0  0  0
   30.4767   39.2876   68.0701 H   0  0  0  0  0  0  0  0  0  0  0  0
   29.0857   40.0384   67.2517 H   0  0  0  0  0  0  0  0  0  0  0  0
   28.5266   39.2562   65.0545 H   0  0  0  0  0  0  0  0  0  0  0  0
   30.9543   39.8108   63.2627 H   0  0  0  0  0  0  0  0  0  0  0  0
   31.6701   38.8173   61.1330 H   0  0  0  0  0  0  0  0  0  0  0  0
   32.7190   37.3942   60.0429 H   0  0  0  0  0  0  0  0  0  0  0  0
   31.5978   38.7575   57.2200 H   0  0  0  0  0  0  0  0  0  0  0  0
   32.9376   38.8158   58.3904 H   0  0  0  0  0  0  0  0  0  0  0  0
   33.2688   38.9827   56.6495 H   0  0  0  0  0  0  0  0  0  0  0  0
   33.4047   37.0645   55.2318 H   0  0  0  0  0  0  0  0  0  0  0  0
   34.8797   34.3897   54.6496 H   0  0  0  0  0  0  0  0  0  0  0  0
   33.3688   33.4509   54.5836 H   0  0  0  0  0  0  0  0  0  0  0  0
   33.4430   35.0709   53.8495 H   0  0  0  0  0  0  0  0  0  0  0  0
   33.2215   33.1823   56.9894 H   0  0  0  0  0  0  0  0  0  0  0  0
   33.3694   33.6958   59.9656 H   0  0  0  0  0  0  0  0  0  0  0  0
   31.7643   34.4420   60.1528 H   0  0  0  0  0  0  0  0  0  0  0  0
   31.9616   33.0008   59.1269 H   0  0  0  0  0  0  0  0  0  0  0  0
   29.2931   35.3426   61.9665 H   0  0  0  0  0  0  0  0  0  0  0  0
   28.5911   36.3415   64.0984 H   0  0  0  0  0  0  0  0  0  0  0  0
  1  2  1  0  0  0  0
  1 23  1  0  0  0  0
  1 24  1  0  0  0  0
  1 25  1  0  0  0  0
  2  3  2  0  0  0  0
  2  4  1  0  0  0  0
  4  5  1  0  0  0  0
  4 26  1  0  0  0  0
  5 22  2  0  0  0  0
  5  6  1  0  0  0  0
  6  7  2  0  0  0  0
  6 27  1  0  0  0  0
  7  8  1  0  0  0  0
  7 28  1  0  0  0  0
  8  9  1  0  0  0  0
  8 21  2  0  0  0  0
  9 10  2  0  0  0  0
  9 11  1  0  0  0  0
 11 12  1  0  0  0  0
 11 29  1  0  0  0  0
 12 19  2  0  0  0  0
 12 13  1  0  0  0  0
 13 14  1  0  0  0  0
 13 15  2  0  0  0  0
 14 30  1  0  0  0  0
 14 31  1  0  0  0  0
 14 32  1  0  0  0  0
 15 16  1  0  0  0  0
 15 33  1  0  0  0  0
 16 17  1  0  0  0  0
 16 18  2  0  0  0  0
 17 34  1  0  0  0  0
 17 35  1  0  0  0  0
 17 36  1  0  0  0  0
 18 19  1  0  0  0  0
 18 37  1  0  0  0  0
 19 20  1  0  0  0  0
 20 38  1  0  0  0  0
 20 39  1  0  0  0  0
 20 40  1  0  0  0  0
 21 22  1  0  0  0  0
 21 41  1  0  0  0  0
 22 42  1  0  0  0  0
M  END
$$$$
