ZINC000000044492      none
 OpenBabel11202420153D

 44 46  0  0  0  0  0  0  0  0999 V2000
   30.3550   38.9214   62.5514 C   0  0  0  0  0  0  0  0  0  0  0  0
   30.0490   37.5203   62.8503 N   0  0  0  0  0  0  0  0  0  0  0  0
   30.0024   36.4778   61.9670 C   0  0  0  0  0  0  0  0  0  0  0  0
   30.3017   36.5638   60.2326 S   0  0  0  0  0  0  0  0  0  0  0  0
   32.0861   36.2618   60.2063 C   0  0  0  0  0  0  0  0  0  0  0  0
   32.4982   35.8059   58.8303 C   0  0  0  0  0  0  0  0  0  0  0  0
   32.5048   34.4584   58.5218 C   0  0  0  0  0  0  0  0  0  0  0  0
   32.8782   34.0405   57.2582 C   0  0  0  0  0  0  0  0  0  0  0  0
   33.2549   34.9693   56.3062 C   0  0  0  0  0  0  0  0  0  0  0  0
   33.6679   34.5132   54.9305 C   0  0  0  0  0  0  0  0  0  0  0  0
   32.5095   33.7599   54.2738 C   0  0  0  0  0  0  0  0  0  0  0  0
   34.0334   35.7301   54.0781 C   0  0  0  0  0  0  0  0  0  0  0  0
   34.8803   33.5866   55.0430 C   0  0  0  0  0  0  0  0  0  0  0  0
   33.2534   36.3164   56.6164 C   0  0  0  0  0  0  0  0  0  0  0  0
   32.8750   36.7347   57.8783 C   0  0  0  0  0  0  0  0  0  0  0  0
   29.6867   35.4013   62.6503 N   0  0  0  0  0  0  0  0  0  0  0  0
   29.5387   35.6935   63.8930 N   0  0  0  0  0  0  0  0  0  0  0  0
   29.7511   36.9774   64.0805 C   0  0  0  0  0  0  0  0  0  0  0  0
   29.6780   37.6988   65.3613 C   0  0  0  0  0  0  0  0  0  0  0  0
   28.8813   37.3658   66.4002 C   0  0  0  0  0  0  0  0  0  0  0  0
   28.9882   38.1954   67.4960 C   0  0  0  0  0  0  0  0  0  0  0  0
   29.8609   39.1992   67.3642 C   0  0  0  0  0  0  0  0  0  0  0  0
   30.6140   39.1290   65.7766 S   0  0  0  0  0  0  0  0  0  0  0  0
   31.4292   39.0852   62.6379 H   0  0  0  0  0  0  0  0  0  0  0  0
   30.0324   39.1552   61.5367 H   0  0  0  0  0  0  0  0  0  0  0  0
   29.8311   39.5662   63.2569 H   0  0  0  0  0  0  0  0  0  0  0  0
   32.6140   37.1817   60.4574 H   0  0  0  0  0  0  0  0  0  0  0  0
   32.3348   35.4899   60.9345 H   0  0  0  0  0  0  0  0  0  0  0  0
   32.2147   33.7324   59.2670 H   0  0  0  0  0  0  0  0  0  0  0  0
   32.8798   32.9880   57.0159 H   0  0  0  0  0  0  0  0  0  0  0  0
   31.6457   34.4200   54.1936 H   0  0  0  0  0  0  0  0  0  0  0  0
   32.8082   33.4300   53.2789 H   0  0  0  0  0  0  0  0  0  0  0  0
   32.2492   32.8930   54.8811 H   0  0  0  0  0  0  0  0  0  0  0  0
   34.8587   36.2668   54.5460 H   0  0  0  0  0  0  0  0  0  0  0  0
   34.3322   35.4002   53.0830 H   0  0  0  0  0  0  0  0  0  0  0  0
   33.1697   36.3902   53.9980 H   0  0  0  0  0  0  0  0  0  0  0  0
   34.6199   32.7198   55.6503 H   0  0  0  0  0  0  0  0  0  0  0  0
   35.1790   33.2568   54.0480 H   0  0  0  0  0  0  0  0  0  0  0  0
   35.7056   34.1235   55.5109 H   0  0  0  0  0  0  0  0  0  0  0  0
   33.5481   37.0420   55.8727 H   0  0  0  0  0  0  0  0  0  0  0  0
   32.8741   37.7872   58.1208 H   0  0  0  0  0  0  0  0  0  0  0  0
   28.2133   36.5175   66.3741 H   0  0  0  0  0  0  0  0  0  0  0  0
   28.4090   38.0455   68.3951 H   0  0  0  0  0  0  0  0  0  0  0  0
   30.0723   39.9418   68.1194 H   0  0  0  0  0  0  0  0  0  0  0  0
  1  2  1  0  0  0  0
  1 24  1  0  0  0  0
  1 25  1  0  0  0  0
  1 26  1  0  0  0  0
  2 18  1  0  0  0  0
  2  3  1  0  0  0  0
  3  4  1  0  0  0  0
  3 16  2  0  0  0  0
  4  5  1  0  0  0  0
  5  6  1  0  0  0  0
  5 27  1  0  0  0  0
  5 28  1  0  0  0  0
  6 15  2  0  0  0  0
  6  7  1  0  0  0  0
  7  8  2  0  0  0  0
  7 29  1  0  0  0  0
  8  9  1  0  0  0  0
  8 30  1  0  0  0  0
  9 10  1  0  0  0  0
  9 14  2  0  0  0  0
 10 11  1  0  0  0  0
 10 12  1  0  0  0  0
 10 13  1  0  0  0  0
 11 31  1  0  0  0  0
 11 32  1  0  0  0  0
 11 33  1  0  0  0  0
 12 34  1  0  0  0  0
 12 35  1  0  0  0  0
 12 36  1  0  0  0  0
 13 37  1  0  0  0  0
 13 38  1  0  0  0  0
 13 39  1  0  0  0  0
 14 15  1  0  0  0  0
 14 40  1  0  0  0  0
 15 41  1  0  0  0  0
 16 17  1  0  0  0  0
 17 18  2  0  0  0  0
 18 19  1  0  0  0  0
 19 23  1  0  0  0  0
 19 20  2  0  0  0  0
 20 21  1  0  0  0  0
 20 42  1  0  0  0  0
 21 22  2  0  0  0  0
 21 43  1  0  0  0  0
 22 23  1  0  0  0  0
 22 44  1  0  0  0  0
M  END
$$$$
