ZINC000000036249      none
 OpenBabel11202420153D

 32 34  0  0  0  0  0  0  0  0999 V2000
   32.4347   35.9359   62.4165 C   0  0  0  0  0  0  0  0  0  0  0  0
   31.7660   37.1818   62.7996 N   0  0  0  0  0  0  0  0  0  0  0  0
   31.1699   38.0747   61.9545 C   0  0  0  0  0  0  0  0  0  0  0  0
   31.0830   37.9080   60.2025 S   0  0  0  0  0  0  0  0  0  0  0  0
   32.6102   38.7567   59.7299 C   0  0  0  0  0  0  0  0  0  0  0  0
   33.0108   38.3333   58.3403 C   0  0  0  0  0  0  0  0  0  0  0  0
   33.4189   39.2807   57.4199 C   0  0  0  0  0  0  0  0  0  0  0  0
   33.7813   38.8933   56.1435 C   0  0  0  0  0  0  0  0  0  0  0  0
   33.7453   37.5565   55.7902 C   0  0  0  0  0  0  0  0  0  0  0  0
   34.2474   37.0252   54.0462 Br  0  0  0  0  0  0  0  0  0  0  0  0
   33.3373   36.6088   56.7116 C   0  0  0  0  0  0  0  0  0  0  0  0
   32.9704   36.9976   57.9862 C   0  0  0  0  0  0  0  0  0  0  0  0
   30.6775   39.0765   62.6411 N   0  0  0  0  0  0  0  0  0  0  0  0
   30.9177   38.8843   63.9646 C   0  0  0  0  0  0  0  0  0  0  0  0
   30.6162   39.6228   65.1118 C   0  0  0  0  0  0  0  0  0  0  0  0
   31.0092   39.1584   66.3470 C   0  0  0  0  0  0  0  0  0  0  0  0
   31.7025   37.9625   66.4613 C   0  0  0  0  0  0  0  0  0  0  0  0
   32.0075   37.2213   65.3383 C   0  0  0  0  0  0  0  0  0  0  0  0
   31.6195   37.6737   64.0864 C   0  0  0  0  0  0  0  0  0  0  0  0
   33.4903   36.1328   62.2290 H   0  0  0  0  0  0  0  0  0  0  0  0
   32.3383   35.2089   63.2229 H   0  0  0  0  0  0  0  0  0  0  0  0
   31.9731   35.5389   61.5124 H   0  0  0  0  0  0  0  0  0  0  0  0
   33.4026   38.4963   60.4316 H   0  0  0  0  0  0  0  0  0  0  0  0
   32.4479   39.8343   59.7489 H   0  0  0  0  0  0  0  0  0  0  0  0
   33.4502   40.3241   57.6969 H   0  0  0  0  0  0  0  0  0  0  0  0
   34.0963   39.6340   55.4233 H   0  0  0  0  0  0  0  0  0  0  0  0
   33.3052   35.5653   56.4349 H   0  0  0  0  0  0  0  0  0  0  0  0
   32.6519   36.2577   58.7057 H   0  0  0  0  0  0  0  0  0  0  0  0
   30.0764   40.5547   65.0299 H   0  0  0  0  0  0  0  0  0  0  0  0
   30.7757   39.7295   67.2334 H   0  0  0  0  0  0  0  0  0  0  0  0
   32.0053   37.6091   67.4359 H   0  0  0  0  0  0  0  0  0  0  0  0
   32.5475   36.2910   65.4341 H   0  0  0  0  0  0  0  0  0  0  0  0
  1  2  1  0  0  0  0
  1 20  1  0  0  0  0
  1 21  1  0  0  0  0
  1 22  1  0  0  0  0
  2 19  1  0  0  0  0
  2  3  1  0  0  0  0
  3  4  1  0  0  0  0
  3 13  2  0  0  0  0
  4  5  1  0  0  0  0
  5  6  1  0  0  0  0
  5 23  1  0  0  0  0
  5 24  1  0  0  0  0
  6 12  2  0  0  0  0
  6  7  1  0  0  0  0
  7  8  2  0  0  0  0
  7 25  1  0  0  0  0
  8  9  1  0  0  0  0
  8 26  1  0  0  0  0
  9 10  1  0  0  0  0
  9 11  2  0  0  0  0
 11 12  1  0  0  0  0
 11 27  1  0  0  0  0
 12 28  1  0  0  0  0
 13 14  1  0  0  0  0
 14 19  2  0  0  0  0
 14 15  1  0  0  0  0
 15 16  2  0  0  0  0
 15 29  1  0  0  0  0
 16 17  1  0  0  0  0
 16 30  1  0  0  0  0
 17 18  2  0  0  0  0
 17 31  1  0  0  0  0
 18 19  1  0  0  0  0
 18 32  1  0  0  0  0
M  END
$$$$
