ZINC000000004150      none
 OpenBabel11202420153D

 32 33  0  0  0  0  0  0  0  0999 V2000
   32.1178   35.0244   59.4980 C   0  0  0  0  0  0  0  0  0  0  0  0
   32.6143   36.1304   58.6027 C   0  0  0  0  0  0  0  0  0  0  0  0
   32.9723   35.8549   57.2972 C   0  0  0  0  0  0  0  0  0  0  0  0
   33.4338   36.8680   56.4772 C   0  0  0  0  0  0  0  0  0  0  0  0
   33.5320   38.1602   56.9594 C   0  0  0  0  0  0  0  0  0  0  0  0
   33.1695   38.4419   58.2623 C   0  0  0  0  0  0  0  0  0  0  0  0
   33.2774   39.8504   58.7872 C   0  0  0  0  0  0  0  0  0  0  0  0
   32.7066   37.4271   59.0871 C   0  0  0  0  0  0  0  0  0  0  0  0
   32.3493   37.7018   60.3692 O   0  0  0  0  0  0  0  0  0  0  0  0
   30.9854   38.0603   60.6000 C   0  0  0  0  0  0  0  0  0  0  0  0
   30.3600   37.0718   61.5503 C   0  0  0  0  0  0  0  0  0  0  0  0
   29.1506   36.4928   61.4251 C   0  0  0  0  0  0  0  0  0  0  0  0
   28.9689   35.6801   62.4765 N   0  0  0  0  0  0  0  0  0  0  0  0
   30.0222   35.7290   63.2453 C   0  0  0  0  0  0  0  0  0  0  0  0
   30.9118   36.5904   62.7066 N   0  0  0  0  0  0  0  0  0  0  0  0
   32.2250   36.9397   63.2544 C   0  0  0  0  0  0  0  0  0  0  0  0
   31.0348   34.9413   59.4061 H   0  0  0  0  0  0  0  0  0  0  0  0
   32.5808   34.0828   59.2030 H   0  0  0  0  0  0  0  0  0  0  0  0
   32.3786   35.2494   60.5321 H   0  0  0  0  0  0  0  0  0  0  0  0
   32.8964   34.8465   56.9183 H   0  0  0  0  0  0  0  0  0  0  0  0
   33.7177   36.6498   55.4583 H   0  0  0  0  0  0  0  0  0  0  0  0
   33.8928   38.9498   56.3168 H   0  0  0  0  0  0  0  0  0  0  0  0
   34.2655   40.0015   59.2218 H   0  0  0  0  0  0  0  0  0  0  0  0
   33.1285   40.5554   57.9693 H   0  0  0  0  0  0  0  0  0  0  0  0
   32.5161   40.0131   59.5501 H   0  0  0  0  0  0  0  0  0  0  0  0
   30.4421   38.0496   59.6551 H   0  0  0  0  0  0  0  0  0  0  0  0
   30.9407   39.0593   61.0336 H   0  0  0  0  0  0  0  0  0  0  0  0
   28.4498   36.6545   60.6194 H   0  0  0  0  0  0  0  0  0  0  0  0
   30.1588   35.1745   64.1620 H   0  0  0  0  0  0  0  0  0  0  0  0
   32.1256   37.8007   63.9154 H   0  0  0  0  0  0  0  0  0  0  0  0
   32.9054   37.1844   62.4388 H   0  0  0  0  0  0  0  0  0  0  0  0
   32.6208   36.0939   63.8166 H   0  0  0  0  0  0  0  0  0  0  0  0
  1  2  1  0  0  0  0
  1 17  1  0  0  0  0
  1 18  1  0  0  0  0
  1 19  1  0  0  0  0
  2  8  2  0  0  0  0
  2  3  1  0  0  0  0
  3  4  2  0  0  0  0
  3 20  1  0  0  0  0
  4  5  1  0  0  0  0
  4 21  1  0  0  0  0
  5  6  2  0  0  0  0
  5 22  1  0  0  0  0
  6  7  1  0  0  0  0
  6  8  1  0  0  0  0
  7 23  1  0  0  0  0
  7 24  1  0  0  0  0
  7 25  1  0  0  0  0
  8  9  1  0  0  0  0
  9 10  1  0  0  0  0
 10 11  1  0  0  0  0
 10 26  1  0  0  0  0
 10 27  1  0  0  0  0
 11 15  1  0  0  0  0
 11 12  2  0  0  0  0
 12 13  1  0  0  0  0
 12 28  1  0  0  0  0
 13 14  2  0  0  0  0
 14 15  1  0  0  0  0
 14 29  1  0  0  0  0
 15 16  1  0  0  0  0
 16 30  1  0  0  0  0
 16 31  1  0  0  0  0
 16 32  1  0  0  0  0
M  END
$$$$
