ZINC000000040706      none
 OpenBabel11202420153D

 30 31  0  0  0  0  0  0  0  0999 V2000
   33.3161   36.7703   54.4034 C   0  0  0  0  0  0  0  0  0  0  0  0
   33.9145   37.8409   55.2048 N   0  0  0  0  0  0  0  0  0  0  0  0
   34.9444   38.7041   54.6214 C   0  0  0  0  0  0  0  0  0  0  0  0
   33.5063   38.0370   56.5143 C   0  0  0  0  0  0  0  0  0  0  0  0
   33.0555   36.9636   57.2823 C   0  0  0  0  0  0  0  0  0  0  0  0
   32.6502   37.2105   58.5913 C   0  0  0  0  0  0  0  0  0  0  0  0
   32.1621   36.1031   59.4490 C   0  0  0  0  0  0  0  0  0  0  0  0
   31.7635   36.3575   60.7601 C   0  0  0  0  0  0  0  0  0  0  0  0
   31.3040   35.3244   61.5514 C   0  0  0  0  0  0  0  0  0  0  0  0
   31.2507   34.0365   61.0501 C   0  0  0  0  0  0  0  0  0  0  0  0
   31.6508   33.7772   59.7514 C   0  0  0  0  0  0  0  0  0  0  0  0
   32.1058   34.8036   58.9488 C   0  0  0  0  0  0  0  0  0  0  0  0
   32.7064   38.4564   59.0628 N   0  0  0  0  0  0  0  0  0  0  0  0
   33.1403   39.4495   58.3034 C   0  0  0  0  0  0  0  0  0  0  0  0
   33.1837   40.7293   58.8286 N   0  0  0  0  0  0  0  0  0  0  0  0
   33.5339   39.2519   57.0539 N   0  0  0  0  0  0  0  0  0  0  0  0
   32.6467   36.1794   55.0286 H   0  0  0  0  0  0  0  0  0  0  0  0
   32.7527   37.2057   53.5781 H   0  0  0  0  0  0  0  0  0  0  0  0
   34.1037   36.1293   54.0073 H   0  0  0  0  0  0  0  0  0  0  0  0
   35.9276   38.2689   54.8008 H   0  0  0  0  0  0  0  0  0  0  0  0
   34.7776   38.7946   53.5481 H   0  0  0  0  0  0  0  0  0  0  0  0
   34.8946   39.6911   55.0813 H   0  0  0  0  0  0  0  0  0  0  0  0
   33.0212   35.9654   56.8715 H   0  0  0  0  0  0  0  0  0  0  0  0
   31.8097   37.3618   61.1543 H   0  0  0  0  0  0  0  0  0  0  0  0
   30.9897   35.5212   62.5658 H   0  0  0  0  0  0  0  0  0  0  0  0
   30.8952   33.2304   61.6747 H   0  0  0  0  0  0  0  0  0  0  0  0
   31.6068   32.7696   59.3648 H   0  0  0  0  0  0  0  0  0  0  0  0
   32.4173   34.6002   57.9349 H   0  0  0  0  0  0  0  0  0  0  0  0
   33.4992   41.4669   58.2833 H   0  0  0  0  0  0  0  0  0  0  0  0
   32.8987   40.8888   59.7420 H   0  0  0  0  0  0  0  0  0  0  0  0
  1  2  1  0  0  0  0
  1 17  1  0  0  0  0
  1 18  1  0  0  0  0
  1 19  1  0  0  0  0
  2  3  1  0  0  0  0
  2  4  1  0  0  0  0
  3 20  1  0  0  0  0
  3 21  1  0  0  0  0
  3 22  1  0  0  0  0
  4 16  2  0  0  0  0
  4  5  1  0  0  0  0
  5  6  2  0  0  0  0
  5 23  1  0  0  0  0
  6  7  1  0  0  0  0
  6 13  1  0  0  0  0
  7 12  2  0  0  0  0
  7  8  1  0  0  0  0
  8  9  2  0  0  0  0
  8 24  1  0  0  0  0
  9 10  1  0  0  0  0
  9 25  1  0  0  0  0
 10 11  2  0  0  0  0
 10 26  1  0  0  0  0
 11 12  1  0  0  0  0
 11 27  1  0  0  0  0
 12 28  1  0  0  0  0
 13 14  2  0  0  0  0
 14 15  1  0  0  0  0
 14 16  1  0  0  0  0
 15 29  1  0  0  0  0
 15 30  1  0  0  0  0
M  END
$$$$
