ZINC000000030345      none
 OpenBabel11202420163D

 42 43  0  0  0  0  0  0  0  0999 V2000
   32.9892   37.3409   55.6198 C   0  0  0  0  0  0  0  0  0  0  0  0
   33.0799   36.4025   56.7411 N   0  0  0  0  0  0  0  0  0  0  0  0
   33.5305   35.0277   56.5111 C   0  0  0  0  0  0  0  0  0  0  0  0
   32.7421   36.8204   58.0307 C   0  0  0  0  0  0  0  0  0  0  0  0
   32.9240   38.1480   58.4012 C   0  0  0  0  0  0  0  0  0  0  0  0
   32.5855   38.5677   59.6737 C   0  0  0  0  0  0  0  0  0  0  0  0
   32.0760   37.6691   60.5892 C   0  0  0  0  0  0  0  0  0  0  0  0
   31.8948   36.3328   60.2291 C   0  0  0  0  0  0  0  0  0  0  0  0
   31.3483   35.3684   61.2076 C   0  0  0  0  0  0  0  0  0  0  0  0
   31.6266   34.1885   61.1187 O   0  0  0  0  0  0  0  0  0  0  0  0
   30.5416   35.7976   62.1983 N   0  0  0  0  0  0  0  0  0  0  0  0
   30.0002   34.8421   63.1679 C   0  0  0  0  0  0  0  0  0  0  0  0
   30.4558   35.2201   64.5538 C   0  0  0  0  0  0  0  0  0  0  0  0
   30.0628   34.4626   65.6412 C   0  0  0  0  0  0  0  0  0  0  0  0
   30.4846   34.8065   66.9119 C   0  0  0  0  0  0  0  0  0  0  0  0
   31.2911   35.9136   67.0964 C   0  0  0  0  0  0  0  0  0  0  0  0
   31.8237   36.3558   68.7167 S   0  0  0  0  0  0  0  0  0  0  0  0
   33.2566   35.5728   68.9921 N   0  0  0  0  0  0  0  0  0  0  0  0
   32.1269   37.7438   68.6746 O   0  0  0  0  0  0  0  0  0  0  0  0
   30.8793   35.7937   69.6169 O   0  0  0  0  0  0  0  0  0  0  0  0
   31.6795   36.6749   66.0094 C   0  0  0  0  0  0  0  0  0  0  0  0
   31.2619   36.3278   64.7381 C   0  0  0  0  0  0  0  0  0  0  0  0
   32.2306   35.9102   58.9428 C   0  0  0  0  0  0  0  0  0  0  0  0
   33.9401   37.8611   55.5034 H   0  0  0  0  0  0  0  0  0  0  0  0
   32.7604   36.7934   54.7055 H   0  0  0  0  0  0  0  0  0  0  0  0
   32.1998   38.0665   55.8160 H   0  0  0  0  0  0  0  0  0  0  0  0
   33.4532   34.4600   57.4384 H   0  0  0  0  0  0  0  0  0  0  0  0
   32.9061   34.5635   55.7479 H   0  0  0  0  0  0  0  0  0  0  0  0
   34.5676   35.0365   56.1760 H   0  0  0  0  0  0  0  0  0  0  0  0
   33.3271   38.8547   57.6909 H   0  0  0  0  0  0  0  0  0  0  0  0
   32.7248   39.6012   59.9545 H   0  0  0  0  0  0  0  0  0  0  0  0
   31.8172   38.0000   61.5842 H   0  0  0  0  0  0  0  0  0  0  0  0
   30.3194   36.7392   62.2694 H   0  0  0  0  0  0  0  0  0  0  0  0
   28.9112   34.8595   63.1260 H   0  0  0  0  0  0  0  0  0  0  0  0
   30.3569   33.8403   62.9288 H   0  0  0  0  0  0  0  0  0  0  0  0
   29.4293   33.5997   65.4977 H   0  0  0  0  0  0  0  0  0  0  0  0
   30.1811   34.2123   67.7610 H   0  0  0  0  0  0  0  0  0  0  0  0
   33.6355   34.9995   68.3076 H   0  0  0  0  0  0  0  0  0  0  0  0
   33.7170   35.6871   69.8383 H   0  0  0  0  0  0  0  0  0  0  0  0
   32.3093   37.5403   66.1536 H   0  0  0  0  0  0  0  0  0  0  0  0
   31.5652   36.9223   63.8891 H   0  0  0  0  0  0  0  0  0  0  0  0
   32.0923   34.8776   58.6583 H   0  0  0  0  0  0  0  0  0  0  0  0
  1  2  1  0  0  0  0
  1 24  1  0  0  0  0
  1 25  1  0  0  0  0
  1 26  1  0  0  0  0
  2  3  1  0  0  0  0
  2  4  1  0  0  0  0
  3 27  1  0  0  0  0
  3 28  1  0  0  0  0
  3 29  1  0  0  0  0
  4 23  2  0  0  0  0
  4  5  1  0  0  0  0
  5  6  2  0  0  0  0
  5 30  1  0  0  0  0
  6  7  1  0  0  0  0
  6 31  1  0  0  0  0
  7  8  2  0  0  0  0
  7 32  1  0  0  0  0
  8  9  1  0  0  0  0
  8 23  1  0  0  0  0
  9 10  2  0  0  0  0
  9 11  1  0  0  0  0
 11 12  1  0  0  0  0
 11 33  1  0  0  0  0
 12 13  1  0  0  0  0
 12 34  1  0  0  0  0
 12 35  1  0  0  0  0
 13 22  2  0  0  0  0
 13 14  1  0  0  0  0
 14 15  2  0  0  0  0
 14 36  1  0  0  0  0
 15 16  1  0  0  0  0
 15 37  1  0  0  0  0
 16 17  1  0  0  0  0
 16 21  2  0  0  0  0
 17 18  1  0  0  0  0
 17 19  2  0  0  0  0
 17 20  2  0  0  0  0
 18 38  1  0  0  0  0
 18 39  1  0  0  0  0
 21 22  1  0  0  0  0
 21 40  1  0  0  0  0
 22 41  1  0  0  0  0
 23 42  1  0  0  0  0
M  END
$$$$
