ZINC000000029318      none
 OpenBabel11202420163D

 31 32  0  0  0  0  0  0  0  0999 V2000
   34.0432   33.4872   56.3418 C   0  0  0  0  0  0  0  0  0  0  0  0
   33.7952   34.9636   56.5142 C   0  0  0  0  0  0  0  0  0  0  0  0
   34.2222   35.8537   55.5455 C   0  0  0  0  0  0  0  0  0  0  0  0
   33.9963   37.2089   55.6997 C   0  0  0  0  0  0  0  0  0  0  0  0
   33.3387   37.6779   56.8203 C   0  0  0  0  0  0  0  0  0  0  0  0
   33.0874   39.1547   56.9846 C   0  0  0  0  0  0  0  0  0  0  0  0
   32.9142   36.7876   57.7978 C   0  0  0  0  0  0  0  0  0  0  0  0
   32.2533   37.2597   58.9362 N   0  0  0  0  0  0  0  0  0  0  0  0
   31.3421   36.4842   59.5567 C   0  0  0  0  0  0  0  0  0  0  0  0
   31.0949   35.3743   59.1266 O   0  0  0  0  0  0  0  0  0  0  0  0
   30.6435   36.9832   60.7598 C   0  0  0  0  0  0  0  0  0  0  0  0
   31.2468   37.9365   61.5895 C   0  0  0  0  0  0  0  0  0  0  0  0
   30.5530   38.3666   62.7065 C   0  0  0  0  0  0  0  0  0  0  0  0
   29.2977   37.8459   62.9660 C   0  0  0  0  0  0  0  0  0  0  0  0
   28.7540   36.9484   62.1664 N   0  0  0  0  0  0  0  0  0  0  0  0
   29.3741   36.5082   61.0913 C   0  0  0  0  0  0  0  0  0  0  0  0
   33.1424   35.4266   57.6395 C   0  0  0  0  0  0  0  0  0  0  0  0
   33.2015   33.0364   55.8163 H   0  0  0  0  0  0  0  0  0  0  0  0
   34.9551   33.3371   55.7639 H   0  0  0  0  0  0  0  0  0  0  0  0
   34.1524   33.0204   57.3207 H   0  0  0  0  0  0  0  0  0  0  0  0
   34.7330   35.4892   54.6664 H   0  0  0  0  0  0  0  0  0  0  0  0
   34.3303   37.9013   54.9411 H   0  0  0  0  0  0  0  0  0  0  0  0
   33.9285   39.6106   57.5067 H   0  0  0  0  0  0  0  0  0  0  0  0
   32.9759   39.6157   56.0032 H   0  0  0  0  0  0  0  0  0  0  0  0
   32.1757   39.3060   57.5626 H   0  0  0  0  0  0  0  0  0  0  0  0
   32.4506   38.1452   59.2793 H   0  0  0  0  0  0  0  0  0  0  0  0
   32.2285   38.3259   61.3633 H   0  0  0  0  0  0  0  0  0  0  0  0
   30.9868   39.1008   63.3692 H   0  0  0  0  0  0  0  0  0  0  0  0
   28.7539   38.1798   63.8373 H   0  0  0  0  0  0  0  0  0  0  0  0
   28.8962   35.7728   60.4610 H   0  0  0  0  0  0  0  0  0  0  0  0
   32.8098   34.7312   58.3961 H   0  0  0  0  0  0  0  0  0  0  0  0
  1  2  1  0  0  0  0
  1 18  1  0  0  0  0
  1 19  1  0  0  0  0
  1 20  1  0  0  0  0
  2 17  2  0  0  0  0
  2  3  1  0  0  0  0
  3  4  2  0  0  0  0
  3 21  1  0  0  0  0
  4  5  1  0  0  0  0
  4 22  1  0  0  0  0
  5  6  1  0  0  0  0
  5  7  2  0  0  0  0
  6 23  1  0  0  0  0
  6 24  1  0  0  0  0
  6 25  1  0  0  0  0
  7  8  1  0  0  0  0
  7 17  1  0  0  0  0
  8  9  1  0  0  0  0
  8 26  1  0  0  0  0
  9 10  2  0  0  0  0
  9 11  1  0  0  0  0
 11 16  2  0  0  0  0
 11 12  1  0  0  0  0
 12 13  2  0  0  0  0
 12 27  1  0  0  0  0
 13 14  1  0  0  0  0
 13 28  1  0  0  0  0
 14 15  2  0  0  0  0
 14 29  1  0  0  0  0
 15 16  1  0  0  0  0
 16 30  1  0  0  0  0
 17 31  1  0  0  0  0
M  END
$$$$
