ZINC000000047822      none
 OpenBabel11202420153D

 24 26  0  0  1  0  0  0  0  0999 V2000
   32.8312   37.3892   61.1791 O   0  0  0  0  0  0  0  0  0  0  0  0
   32.1296   36.8262   61.9921 C   0  0  0  0  0  0  0  0  0  0  0  0
   31.8805   35.3772   62.0598 C   0  0  0  0  0  0  0  0  0  0  0  0
   32.3639   34.3401   61.2462 C   0  0  0  0  0  0  0  0  0  0  0  0
   31.9957   33.0375   61.4972 C   0  0  0  0  0  0  0  0  0  0  0  0
   31.1473   32.7456   62.5514 C   0  0  0  0  0  0  0  0  0  0  0  0
   30.6652   33.7601   63.3574 C   0  0  0  0  0  0  0  0  0  0  0  0
   31.0261   35.0732   63.1188 C   0  0  0  0  0  0  0  0  0  0  0  0
   30.6414   36.3401   63.8434 C   0  0  1  0  0  0  0  0  0  0  0  0
   29.2250   36.5275   63.8745 O   0  0  0  0  0  0  0  0  0  0  0  0
   31.2453   36.3478   65.1839 N   0  0  0  0  0  0  0  0  0  0  0  0
   32.1653   37.3189   65.2478 C   0  0  0  0  0  0  0  0  0  0  0  0
   33.0884   37.6391   66.6537 S   0  0  0  0  0  0  0  0  0  0  0  0
   32.2979   38.0171   64.1126 N   0  0  0  0  0  0  0  0  0  0  0  0
   31.3625   37.4906   63.1080 C   0  0  1  0  0  0  0  0  0  0  0  0
   30.4549   38.4830   62.6249 O   0  0  0  0  0  0  0  0  0  0  0  0
   33.0258   34.5644   60.4227 H   0  0  0  0  0  0  0  0  0  0  0  0
   32.3698   32.2415   60.8704 H   0  0  0  0  0  0  0  0  0  0  0  0
   30.8610   31.7223   62.7445 H   0  0  0  0  0  0  0  0  0  0  0  0
   30.0033   33.5257   64.1780 H   0  0  0  0  0  0  0  0  0  0  0  0
   28.7449   35.8220   64.3292 H   0  0  0  0  0  0  0  0  0  0  0  0
   31.0137   35.7450   65.9077 H   0  0  0  0  0  0  0  0  0  0  0  0
   32.9140   38.7536   63.9748 H   0  0  0  0  0  0  0  0  0  0  0  0
   29.7948   38.1438   62.0050 H   0  0  0  0  0  0  0  0  0  0  0  0
  1  2  2  0  0  0  0
  2 15  1  0  0  0  0
  2  3  1  0  0  0  0
  3  8  2  0  0  0  0
  3  4  1  0  0  0  0
  4  5  2  0  0  0  0
  4 17  1  0  0  0  0
  5  6  1  0  0  0  0
  5 18  1  0  0  0  0
  6  7  2  0  0  0  0
  6 19  1  0  0  0  0
  7  8  1  0  0  0  0
  7 20  1  0  0  0  0
  8  9  1  0  0  0  0
  9 15  1  0  0  0  0
  9 10  1  1  0  0  0
  9 11  1  0  0  0  0
 10 21  1  0  0  0  0
 11 12  1  0  0  0  0
 11 22  1  0  0  0  0
 12 13  2  0  0  0  0
 12 14  1  0  0  0  0
 14 15  1  0  0  0  0
 14 23  1  0  0  0  0
 15 16  1  6  0  0  0
 16 24  1  0  0  0  0
M  END
$$$$
