ZINC000000030938      none
 OpenBabel11202420163D

 38 39  0  0  1  0  0  0  0  0999 V2000
   31.1505   40.2781   65.9741 C   0  0  0  0  0  0  0  0  0  0  0  0
   29.7004   39.7921   66.0202 C   0  0  0  0  0  0  0  0  0  0  0  0
   29.5887   38.5338   65.3041 O   0  0  0  0  0  0  0  0  0  0  0  0
   29.3100   38.6015   63.9929 C   0  0  0  0  0  0  0  0  0  0  0  0
   28.6553   39.5206   63.5611 O   0  0  0  0  0  0  0  0  0  0  0  0
   29.8138   37.5313   63.0592 C   0  0  2  0  0  0  0  0  0  0  0  0
   28.9681   37.0457   62.5722 H   0  0  0  0  0  0  0  0  0  0  0  0
   30.6107   36.4936   63.8532 C   0  0  0  0  0  0  0  0  0  0  0  0
   31.0943   35.3890   62.9108 C   0  0  0  0  0  0  0  0  0  0  0  0
   32.0109   35.9940   61.8489 C   0  0  0  0  0  0  0  0  0  0  0  0
   31.3050   37.0940   61.1779 N   0  0  0  0  0  0  0  0  0  0  0  0
   31.1907   37.1188   59.8351 C   0  0  0  0  0  0  0  0  0  0  0  0
   30.6043   38.0344   59.2919 O   0  0  0  0  0  0  0  0  0  0  0  0
   31.7787   36.0321   59.0231 C   0  0  0  0  0  0  0  0  0  0  0  0
   32.7512   36.3211   58.0644 C   0  0  0  0  0  0  0  0  0  0  0  0
   33.2998   35.3018   57.3140 C   0  0  0  0  0  0  0  0  0  0  0  0
   32.8839   33.9962   57.5059 C   0  0  0  0  0  0  0  0  0  0  0  0
   31.9163   33.7037   58.4505 C   0  0  0  0  0  0  0  0  0  0  0  0
   31.3591   34.7137   59.2073 C   0  0  0  0  0  0  0  0  0  0  0  0
   30.7207   38.1634   61.9987 C   0  0  0  0  0  0  0  0  0  0  0  0
   31.7976   39.5356   66.4410 H   0  0  0  0  0  0  0  0  0  0  0  0
   31.4526   40.4223   64.9367 H   0  0  0  0  0  0  0  0  0  0  0  0
   31.2343   41.2226   66.5116 H   0  0  0  0  0  0  0  0  0  0  0  0
   29.0533   40.5346   65.5531 H   0  0  0  0  0  0  0  0  0  0  0  0
   29.3984   39.6479   67.0575 H   0  0  0  0  0  0  0  0  0  0  0  0
   31.4701   36.9750   64.3197 H   0  0  0  0  0  0  0  0  0  0  0  0
   29.9743   36.0597   64.6246 H   0  0  0  0  0  0  0  0  0  0  0  0
   31.6418   34.6384   63.4807 H   0  0  0  0  0  0  0  0  0  0  0  0
   30.2366   34.9237   62.4251 H   0  0  0  0  0  0  0  0  0  0  0  0
   32.2753   35.2297   61.1180 H   0  0  0  0  0  0  0  0  0  0  0  0
   32.9143   36.3758   62.3244 H   0  0  0  0  0  0  0  0  0  0  0  0
   33.0766   37.3398   57.9136 H   0  0  0  0  0  0  0  0  0  0  0  0
   34.0554   35.5235   56.5748 H   0  0  0  0  0  0  0  0  0  0  0  0
   33.3170   33.2019   56.9160 H   0  0  0  0  0  0  0  0  0  0  0  0
   31.5961   32.6825   58.5954 H   0  0  0  0  0  0  0  0  0  0  0  0
   30.6038   34.4841   59.9443 H   0  0  0  0  0  0  0  0  0  0  0  0
   31.5167   38.7257   62.4867 H   0  0  0  0  0  0  0  0  0  0  0  0
   30.1362   38.8315   61.3662 H   0  0  0  0  0  0  0  0  0  0  0  0
  1  2  1  0  0  0  0
  1 21  1  0  0  0  0
  1 22  1  0  0  0  0
  1 23  1  0  0  0  0
  2  3  1  0  0  0  0
  2 24  1  0  0  0  0
  2 25  1  0  0  0  0
  3  4  1  0  0  0  0
  4  5  2  0  0  0  0
  4  6  1  0  0  0  0
  6  7  1  6  0  0  0
  6 20  1  0  0  0  0
  6  8  1  0  0  0  0
  8  9  1  0  0  0  0
  8 26  1  0  0  0  0
  8 27  1  0  0  0  0
  9 10  1  0  0  0  0
  9 28  1  0  0  0  0
  9 29  1  0  0  0  0
 10 11  1  0  0  0  0
 10 30  1  0  0  0  0
 10 31  1  0  0  0  0
 11 12  1  0  0  0  0
 11 20  1  0  0  0  0
 12 13  2  0  0  0  0
 12 14  1  0  0  0  0
 14 19  2  0  0  0  0
 14 15  1  0  0  0  0
 15 16  2  0  0  0  0
 15 32  1  0  0  0  0
 16 17  1  0  0  0  0
 16 33  1  0  0  0  0
 17 18  2  0  0  0  0
 17 34  1  0  0  0  0
 18 19  1  0  0  0  0
 18 35  1  0  0  0  0
 19 36  1  0  0  0  0
 20 37  1  0  0  0  0
 20 38  1  0  0  0  0
M  END
$$$$
