ZINC000000048257      none
 OpenBabel11202420153D

 46 47  0  0  0  0  0  0  0  0999 V2000
   27.9091   39.9411   67.3667 C   0  0  0  0  0  0  0  0  0  0  0  0
   28.7246   40.6094   66.4021 O   0  0  0  0  0  0  0  0  0  0  0  0
   29.3063   39.8392   65.4468 C   0  0  0  0  0  0  0  0  0  0  0  0
   28.6410   39.5978   64.2520 C   0  0  0  0  0  0  0  0  0  0  0  0
   29.2284   38.8226   63.2766 C   0  0  0  0  0  0  0  0  0  0  0  0
   30.4939   38.2650   63.4944 C   0  0  0  0  0  0  0  0  0  0  0  0
   31.1200   37.4317   62.4586 C   0  0  0  0  0  0  0  0  0  0  0  0
   30.3601   36.8679   61.4942 C   0  0  0  0  0  0  0  0  0  0  0  0
   30.9642   36.0641   60.4952 C   0  0  0  0  0  0  0  0  0  0  0  0
   30.3390   35.1521   59.9878 O   0  0  0  0  0  0  0  0  0  0  0  0
   32.2329   36.3104   60.1068 O   0  0  0  0  0  0  0  0  0  0  0  0
   32.5779   36.0109   58.8268 C   0  0  0  0  0  0  0  0  0  0  0  0
   32.4731   34.7064   58.3659 C   0  0  0  0  0  0  0  0  0  0  0  0
   32.8240   34.4047   57.0644 C   0  0  0  0  0  0  0  0  0  0  0  0
   33.2791   35.4014   56.2211 C   0  0  0  0  0  0  0  0  0  0  0  0
   33.6612   35.0694   54.8016 C   0  0  0  0  0  0  0  0  0  0  0  0
   32.4493   34.4897   54.0695 C   0  0  0  0  0  0  0  0  0  0  0  0
   34.7944   34.0415   54.8056 C   0  0  0  0  0  0  0  0  0  0  0  0
   33.3898   36.7012   56.6795 C   0  0  0  0  0  0  0  0  0  0  0  0
   33.0349   37.0091   57.9786 C   0  0  0  0  0  0  0  0  0  0  0  0
   31.1636   38.5086   64.6994 C   0  0  0  0  0  0  0  0  0  0  0  0
   30.5699   39.2924   65.6688 C   0  0  0  0  0  0  0  0  0  0  0  0
   31.2174   39.5310   66.8407 O   0  0  0  0  0  0  0  0  0  0  0  0
   32.5084   38.9397   67.0005 C   0  0  0  0  0  0  0  0  0  0  0  0
   27.5066   40.6701   68.0699 H   0  0  0  0  0  0  0  0  0  0  0  0
   27.0884   39.4338   66.8596 H   0  0  0  0  0  0  0  0  0  0  0  0
   28.5105   39.2094   67.9064 H   0  0  0  0  0  0  0  0  0  0  0  0
   27.6625   40.0233   64.0850 H   0  0  0  0  0  0  0  0  0  0  0  0
   28.7110   38.6410   62.3463 H   0  0  0  0  0  0  0  0  0  0  0  0
   32.1878   37.2697   62.4684 H   0  0  0  0  0  0  0  0  0  0  0  0
   29.2923   37.0301   61.4845 H   0  0  0  0  0  0  0  0  0  0  0  0
   32.1180   33.9275   59.0244 H   0  0  0  0  0  0  0  0  0  0  0  0
   32.7430   33.3893   56.7052 H   0  0  0  0  0  0  0  0  0  0  0  0
   33.9937   35.9748   54.2936 H   0  0  0  0  0  0  0  0  0  0  0  0
   31.6419   35.2220   54.0666 H   0  0  0  0  0  0  0  0  0  0  0  0
   32.7257   34.2495   53.0429 H   0  0  0  0  0  0  0  0  0  0  0  0
   32.1168   33.5845   54.5775 H   0  0  0  0  0  0  0  0  0  0  0  0
   34.4620   33.1362   55.3136 H   0  0  0  0  0  0  0  0  0  0  0  0
   35.0708   33.8013   53.7789 H   0  0  0  0  0  0  0  0  0  0  0  0
   35.6578   34.4546   55.3272 H   0  0  0  0  0  0  0  0  0  0  0  0
   33.7498   37.4770   56.0202 H   0  0  0  0  0  0  0  0  0  0  0  0
   33.1173   38.0254   58.3350 H   0  0  0  0  0  0  0  0  0  0  0  0
   32.1420   38.0846   64.8703 H   0  0  0  0  0  0  0  0  0  0  0  0
   33.1744   39.3041   66.2184 H   0  0  0  0  0  0  0  0  0  0  0  0
   32.9128   39.2083   67.9765 H   0  0  0  0  0  0  0  0  0  0  0  0
   32.4228   37.8554   66.9286 H   0  0  0  0  0  0  0  0  0  0  0  0
  1  2  1  0  0  0  0
  1 25  1  0  0  0  0
  1 26  1  0  0  0  0
  1 27  1  0  0  0  0
  2  3  1  0  0  0  0
  3 22  2  0  0  0  0
  3  4  1  0  0  0  0
  4  5  2  0  0  0  0
  4 28  1  0  0  0  0
  5  6  1  0  0  0  0
  5 29  1  0  0  0  0
  6  7  1  0  0  0  0
  6 21  2  0  0  0  0
  7  8  2  0  0  0  0
  7 30  1  0  0  0  0
  8  9  1  0  0  0  0
  8 31  1  0  0  0  0
  9 10  2  0  0  0  0
  9 11  1  0  0  0  0
 11 12  1  0  0  0  0
 12 20  2  0  0  0  0
 12 13  1  0  0  0  0
 13 14  2  0  0  0  0
 13 32  1  0  0  0  0
 14 15  1  0  0  0  0
 14 33  1  0  0  0  0
 15 16  1  0  0  0  0
 15 19  2  0  0  0  0
 16 17  1  0  0  0  0
 16 18  1  0  0  0  0
 16 34  1  0  0  0  0
 17 35  1  0  0  0  0
 17 36  1  0  0  0  0
 17 37  1  0  0  0  0
 18 38  1  0  0  0  0
 18 39  1  0  0  0  0
 18 40  1  0  0  0  0
 19 20  1  0  0  0  0
 19 41  1  0  0  0  0
 20 42  1  0  0  0  0
 21 22  1  0  0  0  0
 21 43  1  0  0  0  0
 22 23  1  0  0  0  0
 23 24  1  0  0  0  0
 24 44  1  0  0  0  0
 24 45  1  0  0  0  0
 24 46  1  0  0  0  0
M  END
$$$$
