ZINC000000008288      none
 OpenBabel11202420153D

 26 26  0  0  1  0  0  0  0  0999 V2000
   31.9120   38.1547   59.3588 C   0  0  0  0  0  0  0  0  0  0  0  0
   30.9657   37.4573   60.3381 C   0  0  0  0  0  0  0  0  0  0  0  0
   30.5992   38.3679   61.3766 O   0  0  0  0  0  0  0  0  0  0  0  0
   29.7121   37.8129   62.3498 C   0  0  2  0  0  0  0  0  0  0  0  0
   29.0932   38.9110   63.1905 C   0  0  0  0  0  0  0  0  0  0  0  0
   28.3921   39.8146   62.8020 O   0  0  0  0  0  0  0  0  0  0  0  0
   29.5241   38.6518   64.5934 C   0  0  0  0  0  0  0  0  0  0  0  0
   29.2142   39.3370   65.5447 O   0  0  0  0  0  0  0  0  0  0  0  0
   30.2978   37.5640   64.6640 O   0  0  0  0  0  0  0  0  0  0  0  0
   30.4909   36.9572   63.3617 C   0  0  1  0  0  0  0  0  0  0  0  0
   31.5507   36.9511   63.1072 H   0  0  0  0  0  0  0  0  0  0  0  0
   29.9464   35.5274   63.3656 C   0  0  2  0  0  0  0  0  0  0  0  0
   29.7223   35.2211   62.3437 H   0  0  0  0  0  0  0  0  0  0  0  0
   28.7540   35.4738   64.1513 O   0  0  0  0  0  0  0  0  0  0  0  0
   30.9932   34.5846   63.9624 C   0  0  0  0  0  0  0  0  0  0  0  0
   32.1857   34.6382   63.1767 O   0  0  0  0  0  0  0  0  0  0  0  0
   31.4117   39.0197   58.9236 H   0  0  0  0  0  0  0  0  0  0  0  0
   32.8071   38.4811   59.8885 H   0  0  0  0  0  0  0  0  0  0  0  0
   32.1917   37.4600   58.5668 H   0  0  0  0  0  0  0  0  0  0  0  0
   31.4662   36.5922   60.7733 H   0  0  0  0  0  0  0  0  0  0  0  0
   30.0707   37.1309   59.8084 H   0  0  0  0  0  0  0  0  0  0  0  0
   28.9362   37.2197   61.8658 H   0  0  0  0  0  0  0  0  0  0  0  0
   28.8791   35.7339   65.0742 H   0  0  0  0  0  0  0  0  0  0  0  0
   31.2174   34.8909   64.9842 H   0  0  0  0  0  0  0  0  0  0  0  0
   30.6054   33.5660   63.9652 H   0  0  0  0  0  0  0  0  0  0  0  0
   32.0605   34.3781   62.2538 H   0  0  0  0  0  0  0  0  0  0  0  0
  1  2  1  0  0  0  0
  1 17  1  0  0  0  0
  1 18  1  0  0  0  0
  1 19  1  0  0  0  0
  2  3  1  0  0  0  0
  2 20  1  0  0  0  0
  2 21  1  0  0  0  0
  3  4  1  0  0  0  0
  4 10  1  0  0  0  0
  4  5  1  0  0  0  0
  4 22  1  6  0  0  0
  5  6  2  0  0  0  0
  5  7  1  0  0  0  0
  7  8  2  0  0  0  0
  7  9  1  0  0  0  0
  9 10  1  0  0  0  0
 10 11  1  6  0  0  0
 10 12  1  0  0  0  0
 12 13  1  6  0  0  0
 12 14  1  0  0  0  0
 12 15  1  0  0  0  0
 14 23  1  0  0  0  0
 15 16  1  0  0  0  0
 15 24  1  0  0  0  0
 15 25  1  0  0  0  0
 16 26  1  0  0  0  0
M  END
$$$$
