ZINC000000054294      none
 OpenBabel11202420153D

 21 21  0  0  1  0  0  0  0  0999 V2000
   32.9014   33.6762   60.2314 O   0  0  0  0  0  0  0  0  0  0  0  0
   32.5975   33.5708   61.4062 N   0  0  0  0  0  0  0  0  0  0  0  0
   33.0185   32.6350   62.0624 O   0  0  0  0  0  0  0  0  0  0  0  0
   31.7257   34.5692   62.0298 C   0  0  0  0  0  0  0  0  0  0  0  0
   30.7745   35.1439   60.9780 C   0  0  1  0  0  0  0  0  0  0  0  0
   30.4323   34.3438   60.3217 H   0  0  0  0  0  0  0  0  0  0  0  0
   29.6504   35.7407   61.6279 O   0  0  0  0  0  0  0  0  0  0  0  0
   31.4963   36.1869   60.1644 C   0  0  0  0  0  0  0  0  0  0  0  0
   31.4760   37.5104   60.5628 C   0  0  0  0  0  0  0  0  0  0  0  0
   32.1418   38.4665   59.8188 C   0  0  0  0  0  0  0  0  0  0  0  0
   32.8202   38.1004   58.6713 C   0  0  0  0  0  0  0  0  0  0  0  0
   32.8361   36.7777   58.2701 C   0  0  0  0  0  0  0  0  0  0  0  0
   32.1740   35.8210   59.0164 C   0  0  0  0  0  0  0  0  0  0  0  0
   32.3332   35.3721   62.4474 H   0  0  0  0  0  0  0  0  0  0  0  0
   31.1469   34.1001   62.8254 H   0  0  0  0  0  0  0  0  0  0  0  0
   29.8809   36.4623   62.2289 H   0  0  0  0  0  0  0  0  0  0  0  0
   30.9428   37.7970   61.4572 H   0  0  0  0  0  0  0  0  0  0  0  0
   32.1296   39.4999   60.1324 H   0  0  0  0  0  0  0  0  0  0  0  0
   33.3382   38.8478   58.0885 H   0  0  0  0  0  0  0  0  0  0  0  0
   33.3663   36.4917   57.3736 H   0  0  0  0  0  0  0  0  0  0  0  0
   32.1864   34.7876   58.7029 H   0  0  0  0  0  0  0  0  0  0  0  0
  1  2  2  0  0  0  0
  2  3  2  0  0  0  0
  2  4  1  0  0  0  0
  4  5  1  0  0  0  0
  4 14  1  0  0  0  0
  4 15  1  0  0  0  0
  5  6  1  6  0  0  0
  5  7  1  0  0  0  0
  5  8  1  0  0  0  0
  7 16  1  0  0  0  0
  8 13  2  0  0  0  0
  8  9  1  0  0  0  0
  9 10  2  0  0  0  0
  9 17  1  0  0  0  0
 10 11  1  0  0  0  0
 10 18  1  0  0  0  0
 11 12  2  0  0  0  0
 11 19  1  0  0  0  0
 12 13  1  0  0  0  0
 12 20  1  0  0  0  0
 13 21  1  0  0  0  0
M  END
$$$$
