ZINC000000006235      none
 OpenBabel11202420153D

 22 23  0  0  1  0  0  0  0  0999 V2000
   31.6994   33.7114   58.4170 C   0  0  0  0  0  0  0  0  0  0  0  0
   31.8730   33.8129   59.9106 C   0  0  0  0  0  0  0  0  0  0  0  0
   32.5058   32.8992   60.6184 N   0  0  0  0  0  0  0  0  0  0  0  0
   32.5952   33.0979   61.8902 C   0  0  0  0  0  0  0  0  0  0  0  0
   31.8150   34.5590   62.3147 S   0  0  0  0  0  0  0  0  0  0  0  0
   31.3928   34.8341   60.6263 C   0  0  0  0  0  0  0  0  0  0  0  0
   30.6258   36.0131   60.0852 C   0  0  2  0  0  0  0  0  0  0  0  0
   29.7156   35.6621   59.5988 H   0  0  0  0  0  0  0  0  0  0  0  0
   31.4338   36.7122   59.1362 O   0  0  0  0  0  0  0  0  0  0  0  0
   30.2649   36.9400   61.2172 C   0  0  0  0  0  0  0  0  0  0  0  0
   31.0368   38.0223   61.6987 C   0  0  0  0  0  0  0  0  0  0  0  0
   30.3436   38.5759   62.7099 C   0  0  0  0  0  0  0  0  0  0  0  0
   29.1993   37.8903   62.8654 O   0  0  0  0  0  0  0  0  0  0  0  0
   29.1439   36.9002   61.9596 C   0  0  0  0  0  0  0  0  0  0  0  0
   32.5388   34.1974   57.9198 H   0  0  0  0  0  0  0  0  0  0  0  0
   31.6630   32.6616   58.1260 H   0  0  0  0  0  0  0  0  0  0  0  0
   30.7708   34.2018   58.1250 H   0  0  0  0  0  0  0  0  0  0  0  0
   33.0874   32.4351   62.5864 H   0  0  0  0  0  0  0  0  0  0  0  0
   31.7038   36.1755   58.3786 H   0  0  0  0  0  0  0  0  0  0  0  0
   31.9988   38.3426   61.3266 H   0  0  0  0  0  0  0  0  0  0  0  0
   30.6544   39.4276   63.2968 H   0  0  0  0  0  0  0  0  0  0  0  0
   28.3373   36.1909   61.8478 H   0  0  0  0  0  0  0  0  0  0  0  0
  1  2  1  0  0  0  0
  1 15  1  0  0  0  0
  1 16  1  0  0  0  0
  1 17  1  0  0  0  0
  2  6  2  0  0  0  0
  2  3  1  0  0  0  0
  3  4  2  0  0  0  0
  4  5  1  0  0  0  0
  4 18  1  0  0  0  0
  5  6  1  0  0  0  0
  6  7  1  0  0  0  0
  7  8  1  6  0  0  0
  7  9  1  0  0  0  0
  7 10  1  0  0  0  0
  9 19  1  0  0  0  0
 10 14  2  0  0  0  0
 10 11  1  0  0  0  0
 11 12  2  0  0  0  0
 11 20  1  0  0  0  0
 12 13  1  0  0  0  0
 12 21  1  0  0  0  0
 13 14  1  0  0  0  0
 14 22  1  0  0  0  0
M  END
$$$$
