ZINC000000044995      none
 OpenBabel11202420153D

 47 48  0  0  1  0  0  0  0  0999 V2000
   34.8015   34.1768   54.9463 C   0  0  0  0  0  0  0  0  0  0  0  0
   33.6262   35.1553   54.9001 C   0  0  0  0  0  0  0  0  0  0  0  0
   32.4443   34.4993   54.1834 C   0  0  0  0  0  0  0  0  0  0  0  0
   33.2215   35.5209   56.3049 C   0  0  0  0  0  0  0  0  0  0  0  0
   33.2700   36.8424   56.7134 C   0  0  0  0  0  0  0  0  0  0  0  0
   32.9014   37.1850   57.9972 C   0  0  0  0  0  0  0  0  0  0  0  0
   32.4781   36.1929   58.8874 C   0  0  0  0  0  0  0  0  0  0  0  0
   32.0828   36.5500   60.2593 C   0  0  0  0  0  0  0  0  0  0  0  0
   32.5918   37.5040   60.8080 O   0  0  0  0  0  0  0  0  0  0  0  0
   31.0454   35.7301   60.9822 C   0  0  0  0  0  0  0  0  0  0  0  0
   30.2841   36.6222   61.9647 C   0  0  2  0  0  0  0  0  0  0  0  0
   29.7942   37.4285   61.4188 H   0  0  0  0  0  0  0  0  0  0  0  0
   31.2245   37.1914   62.9392 N   0  3  0  0  0  0  0  0  0  0  0  0
   31.6779   36.4449   63.4445 H   0  0  0  0  0  0  0  0  0  0  0  0
   31.9193   37.7402   62.4553 H   0  0  0  0  0  0  0  0  0  0  0  0
   30.4936   38.0479   63.8825 C   0  0  0  0  0  0  0  0  0  0  0  0
   31.4583   38.6318   64.8822 C   0  0  0  0  0  0  0  0  0  0  0  0
   31.2089   39.8719   65.4398 C   0  0  0  0  0  0  0  0  0  0  0  0
   32.0900   40.4059   66.3610 C   0  0  0  0  0  0  0  0  0  0  0  0
   33.2290   39.7034   66.7165 C   0  0  0  0  0  0  0  0  0  0  0  0
   34.0943   40.2272   67.6121 F   0  0  0  0  0  0  0  0  0  0  0  0
   33.4807   38.4640   66.1531 C   0  0  0  0  0  0  0  0  0  0  0  0
   32.5950   37.9293   65.2368 C   0  0  0  0  0  0  0  0  0  0  0  0
   29.2466   35.8023   62.6876 C   0  0  0  0  0  0  0  0  0  0  0  0
   28.0667   36.0960   62.5982 O   0  0  0  0  0  0  0  0  0  0  0  0
   29.5873   34.8453   63.3618 O   0  0  0  0  0  1  0  0  0  0  0  0
   32.4378   34.8590   58.4690 C   0  0  0  0  0  0  0  0  0  0  0  0
   32.8037   34.5334   57.1801 C   0  0  0  0  0  0  0  0  0  0  0  0
   35.0942   33.9124   53.9302 H   0  0  0  0  0  0  0  0  0  0  0  0
   35.6435   34.6441   55.4569 H   0  0  0  0  0  0  0  0  0  0  0  0
   34.5042   33.2768   55.4846 H   0  0  0  0  0  0  0  0  0  0  0  0
   33.9235   36.0551   54.3618 H   0  0  0  0  0  0  0  0  0  0  0  0
   31.6070   35.1962   54.1505 H   0  0  0  0  0  0  0  0  0  0  0  0
   32.7370   34.2348   53.1672 H   0  0  0  0  0  0  0  0  0  0  0  0
   32.1470   33.5992   54.7217 H   0  0  0  0  0  0  0  0  0  0  0  0
   33.5971   37.6073   56.0247 H   0  0  0  0  0  0  0  0  0  0  0  0
   32.9397   38.2166   58.3145 H   0  0  0  0  0  0  0  0  0  0  0  0
   31.5353   34.9238   61.5280 H   0  0  0  0  0  0  0  0  0  0  0  0
   30.3476   35.3078   60.2592 H   0  0  0  0  0  0  0  0  0  0  0  0
   30.0038   38.8543   63.3366 H   0  0  0  0  0  0  0  0  0  0  0  0
   29.7432   37.4549   64.4053 H   0  0  0  0  0  0  0  0  0  0  0  0
   30.3230   40.4220   65.1585 H   0  0  0  0  0  0  0  0  0  0  0  0
   31.8928   41.3729   66.7995 H   0  0  0  0  0  0  0  0  0  0  0  0
   34.3689   37.9152   66.4293 H   0  0  0  0  0  0  0  0  0  0  0  0
   32.7911   36.9624   64.7972 H   0  0  0  0  0  0  0  0  0  0  0  0
   32.1166   34.0868   59.1522 H   0  0  0  0  0  0  0  0  0  0  0  0
   32.7686   33.5044   56.8540 H   0  0  0  0  0  0  0  0  0  0  0  0
  1  2  1  0  0  0  0
  1 29  1  0  0  0  0
  1 30  1  0  0  0  0
  1 31  1  0  0  0  0
  2  3  1  0  0  0  0
  2  4  1  0  0  0  0
  2 32  1  0  0  0  0
  3 33  1  0  0  0  0
  3 34  1  0  0  0  0
  3 35  1  0  0  0  0
  4 28  2  0  0  0  0
  4  5  1  0  0  0  0
  5  6  2  0  0  0  0
  5 36  1  0  0  0  0
  6  7  1  0  0  0  0
  6 37  1  0  0  0  0
  7  8  1  0  0  0  0
  7 27  2  0  0  0  0
  8  9  2  0  0  0  0
  8 10  1  0  0  0  0
 10 11  1  0  0  0  0
 10 38  1  0  0  0  0
 10 39  1  0  0  0  0
 11 12  1  6  0  0  0
 11 13  1  0  0  0  0
 11 24  1  0  0  0  0
 13 14  1  0  0  0  0
 13 15  1  0  0  0  0
 13 16  1  0  0  0  0
 16 17  1  0  0  0  0
 16 40  1  0  0  0  0
 16 41  1  0  0  0  0
 17 23  2  0  0  0  0
 17 18  1  0  0  0  0
 18 19  2  0  0  0  0
 18 42  1  0  0  0  0
 19 20  1  0  0  0  0
 19 43  1  0  0  0  0
 20 21  1  0  0  0  0
 20 22  2  0  0  0  0
 22 23  1  0  0  0  0
 22 44  1  0  0  0  0
 23 45  1  0  0  0  0
 24 25  2  0  0  0  0
 24 26  1  0  0  0  0
 27 28  1  0  0  0  0
 27 46  1  0  0  0  0
 28 47  1  0  0  0  0
M  CHG  1  13   1
M  END
$$$$
