ZINC000000045271      none
 OpenBabel11202420153D

 46 48  0  0  1  0  0  0  0  0999 V2000
   32.0322   38.6854   58.0223 C   0  0  0  0  0  0  0  0  0  0  0  0
   31.7269   38.0481   59.3533 C   0  0  0  0  0  0  0  0  0  0  0  0
   32.7072   37.9739   60.3252 C   0  0  0  0  0  0  0  0  0  0  0  0
   32.4269   37.3902   61.5465 C   0  0  0  0  0  0  0  0  0  0  0  0
   31.1665   36.8801   61.7958 C   0  0  0  0  0  0  0  0  0  0  0  0
   30.8095   36.1356   63.3523 S   0  0  0  0  0  0  0  0  0  0  0  0
   32.0547   35.7101   63.8886 O   0  0  0  0  0  0  0  0  0  0  0  0
   29.7156   35.2551   63.1344 O   0  0  0  0  0  0  0  0  0  0  0  0
   30.2539   37.3328   64.3525 N   0  0  0  0  0  0  0  0  0  0  0  0
   31.1544   38.0601   65.1417 N   0  0  0  0  0  0  0  0  0  0  0  0
   31.0415   38.0492   66.4167 C   0  0  0  0  0  0  0  0  0  0  0  0
   29.9797   37.3045   67.2510 C   0  0  0  0  0  0  0  0  0  0  0  0
   30.3501   37.6519   68.7257 C   0  0  2  0  0  0  0  0  0  0  0  0
   29.9565   36.9815   69.4897 H   0  0  0  0  0  0  0  0  0  0  0  0
   29.9713   39.1578   68.8736 C   0  0  0  0  0  0  0  0  0  0  0  0
   31.0156   39.9050   68.0125 C   0  0  0  0  0  0  0  0  0  0  0  0
   31.9273   38.7791   67.4362 C   0  0  2  0  0  0  0  0  0  0  0  0
   33.2994   39.2266   66.9277 C   0  0  0  0  0  0  0  0  0  0  0  0
   31.9136   37.7556   68.6256 C   0  0  0  0  0  0  0  0  0  0  0  0
   32.5320   38.3594   69.8883 C   0  0  0  0  0  0  0  0  0  0  0  0
   32.5571   36.4159   68.2623 C   0  0  0  0  0  0  0  0  0  0  0  0
   30.1879   36.9492   60.8218 C   0  0  0  0  0  0  0  0  0  0  0  0
   30.4665   37.5380   59.6027 C   0  0  0  0  0  0  0  0  0  0  0  0
   32.4024   37.9269   57.3326 H   0  0  0  0  0  0  0  0  0  0  0  0
   31.1247   39.1330   57.6171 H   0  0  0  0  0  0  0  0  0  0  0  0
   32.7903   39.4574   58.1544 H   0  0  0  0  0  0  0  0  0  0  0  0
   33.6919   38.3724   60.1305 H   0  0  0  0  0  0  0  0  0  0  0  0
   33.1928   37.3322   62.3058 H   0  0  0  0  0  0  0  0  0  0  0  0
   29.3051   37.5304   64.3920 H   0  0  0  0  0  0  0  0  0  0  0  0
   30.0384   36.2283   67.0888 H   0  0  0  0  0  0  0  0  0  0  0  0
   28.9806   37.6706   67.0146 H   0  0  0  0  0  0  0  0  0  0  0  0
   28.9659   39.3365   68.4927 H   0  0  0  0  0  0  0  0  0  0  0  0
   30.0451   39.4681   69.9159 H   0  0  0  0  0  0  0  0  0  0  0  0
   30.5244   40.4473   67.2047 H   0  0  0  0  0  0  0  0  0  0  0  0
   31.5976   40.5894   68.6299 H   0  0  0  0  0  0  0  0  0  0  0  0
   33.8517   39.6985   67.7404 H   0  0  0  0  0  0  0  0  0  0  0  0
   33.8533   38.3600   66.5669 H   0  0  0  0  0  0  0  0  0  0  0  0
   33.1703   39.9400   66.1139 H   0  0  0  0  0  0  0  0  0  0  0  0
   32.3093   37.7208   70.7429 H   0  0  0  0  0  0  0  0  0  0  0  0
   33.6121   38.4353   69.7632 H   0  0  0  0  0  0  0  0  0  0  0  0
   32.1152   39.3522   70.0579 H   0  0  0  0  0  0  0  0  0  0  0  0
   32.1575   36.0674   67.3099 H   0  0  0  0  0  0  0  0  0  0  0  0
   33.6366   36.5421   68.1791 H   0  0  0  0  0  0  0  0  0  0  0  0
   32.3355   35.6839   69.0389 H   0  0  0  0  0  0  0  0  0  0  0  0
   29.2045   36.5467   61.0150 H   0  0  0  0  0  0  0  0  0  0  0  0
   29.7006   37.5963   58.8435 H   0  0  0  0  0  0  0  0  0  0  0  0
  1  2  1  0  0  0  0
  1 24  1  0  0  0  0
  1 25  1  0  0  0  0
  1 26  1  0  0  0  0
  2 23  2  0  0  0  0
  2  3  1  0  0  0  0
  3  4  2  0  0  0  0
  3 27  1  0  0  0  0
  4  5  1  0  0  0  0
  4 28  1  0  0  0  0
  5  6  1  0  0  0  0
  5 22  2  0  0  0  0
  6  7  2  0  0  0  0
  6  8  2  0  0  0  0
  6  9  1  0  0  0  0
  9 10  1  0  0  0  0
  9 29  1  0  0  0  0
 10 11  2  0  0  0  0
 11 17  1  0  0  0  0
 11 12  1  0  0  0  0
 12 13  1  0  0  0  0
 12 30  1  0  0  0  0
 12 31  1  0  0  0  0
 13 14  1  1  0  0  0
 13 19  1  0  0  0  0
 13 15  1  0  0  0  0
 15 16  1  0  0  0  0
 15 32  1  0  0  0  0
 15 33  1  0  0  0  0
 16 17  1  0  0  0  0
 16 34  1  0  0  0  0
 16 35  1  0  0  0  0
 17 18  1  6  0  0  0
 17 19  1  0  0  0  0
 18 36  1  0  0  0  0
 18 37  1  0  0  0  0
 18 38  1  0  0  0  0
 19 20  1  0  0  0  0
 19 21  1  0  0  0  0
 20 39  1  0  0  0  0
 20 40  1  0  0  0  0
 20 41  1  0  0  0  0
 21 42  1  0  0  0  0
 21 43  1  0  0  0  0
 21 44  1  0  0  0  0
 22 23  1  0  0  0  0
 22 45  1  0  0  0  0
 23 46  1  0  0  0  0
M  END
$$$$
