ZINC000000029010      none
 OpenBabel11202420163D

 33 35  0  0  0  0  0  0  0  0999 V2000
   34.7294   33.5234   56.5068 O   0  0  0  0  0  0  0  0  0  0  0  0
   33.8065   34.1350   57.0020 C   0  0  0  0  0  0  0  0  0  0  0  0
   33.3128   35.4105   56.3730 C   0  0  0  0  0  0  0  0  0  0  0  0
   33.5007   36.4883   57.2618 O   0  0  0  0  0  0  0  0  0  0  0  0
   32.7806   36.6635   58.3876 C   0  0  0  0  0  0  0  0  0  0  0  0
   32.7826   37.9682   58.9049 C   0  0  0  0  0  0  0  0  0  0  0  0
   32.1274   38.2725   60.0695 C   0  0  0  0  0  0  0  0  0  0  0  0
   31.4288   37.2688   60.7492 C   0  0  0  0  0  0  0  0  0  0  0  0
   30.7205   37.5744   62.0061 C   0  0  0  0  0  0  0  0  0  0  0  0
   29.5597   37.9349   61.9776 O   0  0  0  0  0  0  0  0  0  0  0  0
   31.4218   37.4424   63.3003 C   0  0  0  0  0  0  0  0  0  0  0  0
   32.7535   37.0230   63.3369 C   0  0  0  0  0  0  0  0  0  0  0  0
   33.4036   36.9076   64.5479 C   0  0  0  0  0  0  0  0  0  0  0  0
   32.7361   37.1955   65.7254 C   0  0  0  0  0  0  0  0  0  0  0  0
   31.4147   37.6056   65.6969 C   0  0  0  0  0  0  0  0  0  0  0  0
   30.7541   37.7309   64.4925 C   0  0  0  0  0  0  0  0  0  0  0  0
   31.4087   35.9780   60.2259 C   0  0  0  0  0  0  0  0  0  0  0  0
   32.0770   35.6728   59.0481 C   0  0  0  0  0  0  0  0  0  0  0  0
   31.9626   34.2603   58.5650 C   0  0  0  0  0  0  0  0  0  0  0  0
   33.2147   33.6849   58.1127 N   0  0  0  0  0  0  0  0  0  0  0  0
   33.8668   35.5987   55.4534 H   0  0  0  0  0  0  0  0  0  0  0  0
   32.2522   35.3129   56.1415 H   0  0  0  0  0  0  0  0  0  0  0  0
   33.3142   38.7464   58.3775 H   0  0  0  0  0  0  0  0  0  0  0  0
   32.1465   39.2803   60.4573 H   0  0  0  0  0  0  0  0  0  0  0  0
   33.2741   36.7937   62.4190 H   0  0  0  0  0  0  0  0  0  0  0  0
   34.4348   36.5879   64.5775 H   0  0  0  0  0  0  0  0  0  0  0  0
   33.2487   37.0994   66.6713 H   0  0  0  0  0  0  0  0  0  0  0  0
   30.8996   37.8284   66.6196 H   0  0  0  0  0  0  0  0  0  0  0  0
   29.7229   38.0510   64.4717 H   0  0  0  0  0  0  0  0  0  0  0  0
   30.8652   35.2023   60.7450 H   0  0  0  0  0  0  0  0  0  0  0  0
   31.5722   33.6468   59.3770 H   0  0  0  0  0  0  0  0  0  0  0  0
   31.2523   34.2329   57.7387 H   0  0  0  0  0  0  0  0  0  0  0  0
   33.6260   32.9679   58.6205 H   0  0  0  0  0  0  0  0  0  0  0  0
  1  2  2  0  0  0  0
  2 20  1  0  0  0  0
  2  3  1  0  0  0  0
  3  4  1  0  0  0  0
  3 21  1  0  0  0  0
  3 22  1  0  0  0  0
  4  5  1  0  0  0  0
  5 18  2  0  0  0  0
  5  6  1  0  0  0  0
  6  7  2  0  0  0  0
  6 23  1  0  0  0  0
  7  8  1  0  0  0  0
  7 24  1  0  0  0  0
  8  9  1  0  0  0  0
  8 17  2  0  0  0  0
  9 10  2  0  0  0  0
  9 11  1  0  0  0  0
 11 16  2  0  0  0  0
 11 12  1  0  0  0  0
 12 13  2  0  0  0  0
 12 25  1  0  0  0  0
 13 14  1  0  0  0  0
 13 26  1  0  0  0  0
 14 15  2  0  0  0  0
 14 27  1  0  0  0  0
 15 16  1  0  0  0  0
 15 28  1  0  0  0  0
 16 29  1  0  0  0  0
 17 18  1  0  0  0  0
 17 30  1  0  0  0  0
 18 19  1  0  0  0  0
 19 20  1  0  0  0  0
 19 31  1  0  0  0  0
 19 32  1  0  0  0  0
 20 33  1  0  0  0  0
M  END
$$$$
