ZINC000000042471      none
 OpenBabel11202420153D

 46 48  0  0  0  0  0  0  0  0999 V2000
   24.3309   41.6547   67.5147 C   0  0  0  0  0  0  0  0  0  0  0  0
   25.5211   40.9767   66.8330 C   0  0  0  0  0  0  0  0  0  0  0  0
   25.6291   39.6282   67.2935 O   0  0  0  0  0  0  0  0  0  0  0  0
   26.8753   39.0852   67.3271 C   0  0  0  0  0  0  0  0  0  0  0  0
   27.1843   38.1161   68.2704 C   0  0  0  0  0  0  0  0  0  0  0  0
   28.4500   37.5644   68.3046 C   0  0  0  0  0  0  0  0  0  0  0  0
   29.4122   37.9794   67.3957 C   0  0  0  0  0  0  0  0  0  0  0  0
   30.6584   37.4363   67.4293 O   0  0  0  0  0  0  0  0  0  0  0  0
   30.9068   36.4437   68.4269 C   0  0  0  0  0  0  0  0  0  0  0  0
   32.3513   35.9533   68.3099 C   0  0  0  0  0  0  0  0  0  0  0  0
   29.1050   38.9524   66.4564 C   0  0  0  0  0  0  0  0  0  0  0  0
   30.1522   39.4076   65.4730 C   0  0  0  0  0  0  0  0  0  0  0  0
   30.0901   38.5459   64.2382 C   0  0  0  0  0  0  0  0  0  0  0  0
   30.7767   37.4038   64.0230 O   0  0  0  0  0  0  0  0  0  0  0  0
   30.4376   36.9456   62.8062 C   0  0  0  0  0  0  0  0  0  0  0  0
   30.9554   35.7141   62.1737 C   0  0  0  0  0  0  0  0  0  0  0  0
   30.5181   35.3424   60.9014 C   0  0  0  0  0  0  0  0  0  0  0  0
   31.0086   34.1940   60.3150 C   0  0  0  0  0  0  0  0  0  0  0  0
   31.9247   33.4063   60.9893 C   0  0  0  0  0  0  0  0  0  0  0  0
   32.3583   33.7662   62.2529 C   0  0  0  0  0  0  0  0  0  0  0  0
   31.8794   34.9147   62.8486 C   0  0  0  0  0  0  0  0  0  0  0  0
   29.5729   37.7759   62.2706 N   0  0  0  0  0  0  0  0  0  0  0  0
   29.3420   38.7748   63.1383 C   0  0  0  0  0  0  0  0  0  0  0  0
   28.5035   39.8288   62.9435 O   0  0  0  0  0  0  0  0  0  0  0  0
   27.8374   39.5003   66.4188 C   0  0  0  0  0  0  0  0  0  0  0  0
   24.2486   42.6832   67.1635 H   0  0  0  0  0  0  0  0  0  0  0  0
   23.4165   41.1136   67.2718 H   0  0  0  0  0  0  0  0  0  0  0  0
   24.4798   41.6503   68.5945 H   0  0  0  0  0  0  0  0  0  0  0  0
   26.4356   41.5178   67.0759 H   0  0  0  0  0  0  0  0  0  0  0  0
   25.3724   40.9811   65.7533 H   0  0  0  0  0  0  0  0  0  0  0  0
   26.4352   37.7933   68.9783 H   0  0  0  0  0  0  0  0  0  0  0  0
   28.6907   36.8103   69.0392 H   0  0  0  0  0  0  0  0  0  0  0  0
   30.7484   36.8746   69.4156 H   0  0  0  0  0  0  0  0  0  0  0  0
   30.2256   35.6051   68.2825 H   0  0  0  0  0  0  0  0  0  0  0  0
   32.5098   35.5224   67.3212 H   0  0  0  0  0  0  0  0  0  0  0  0
   33.0326   36.7920   68.4542 H   0  0  0  0  0  0  0  0  0  0  0  0
   32.5408   35.1963   69.0708 H   0  0  0  0  0  0  0  0  0  0  0  0
   29.9675   40.4467   65.2005 H   0  0  0  0  0  0  0  0  0  0  0  0
   31.1393   39.3210   65.9272 H   0  0  0  0  0  0  0  0  0  0  0  0
   29.7999   35.9541   60.3757 H   0  0  0  0  0  0  0  0  0  0  0  0
   30.6735   33.9069   59.3292 H   0  0  0  0  0  0  0  0  0  0  0  0
   32.3028   32.5062   60.5273 H   0  0  0  0  0  0  0  0  0  0  0  0
   33.0736   33.1470   62.7737 H   0  0  0  0  0  0  0  0  0  0  0  0
   32.2189   35.1948   63.8349 H   0  0  0  0  0  0  0  0  0  0  0  0
   28.1101   40.1740   63.7565 H   0  0  0  0  0  0  0  0  0  0  0  0
   27.5970   40.2554   65.6849 H   0  0  0  0  0  0  0  0  0  0  0  0
  1  2  1  0  0  0  0
  1 26  1  0  0  0  0
  1 27  1  0  0  0  0
  1 28  1  0  0  0  0
  2  3  1  0  0  0  0
  2 29  1  0  0  0  0
  2 30  1  0  0  0  0
  3  4  1  0  0  0  0
  4 25  2  0  0  0  0
  4  5  1  0  0  0  0
  5  6  2  0  0  0  0
  5 31  1  0  0  0  0
  6  7  1  0  0  0  0
  6 32  1  0  0  0  0
  7  8  1  0  0  0  0
  7 11  2  0  0  0  0
  8  9  1  0  0  0  0
  9 10  1  0  0  0  0
  9 33  1  0  0  0  0
  9 34  1  0  0  0  0
 10 35  1  0  0  0  0
 10 36  1  0  0  0  0
 10 37  1  0  0  0  0
 11 12  1  0  0  0  0
 11 25  1  0  0  0  0
 12 13  1  0  0  0  0
 12 38  1  0  0  0  0
 12 39  1  0  0  0  0
 13 23  2  0  0  0  0
 13 14  1  0  0  0  0
 14 15  1  0  0  0  0
 15 16  1  0  0  0  0
 15 22  2  0  0  0  0
 16 21  2  0  0  0  0
 16 17  1  0  0  0  0
 17 18  2  0  0  0  0
 17 40  1  0  0  0  0
 18 19  1  0  0  0  0
 18 41  1  0  0  0  0
 19 20  2  0  0  0  0
 19 42  1  0  0  0  0
 20 21  1  0  0  0  0
 20 43  1  0  0  0  0
 21 44  1  0  0  0  0
 22 23  1  0  0  0  0
 23 24  1  0  0  0  0
 24 45  1  0  0  0  0
 25 46  1  0  0  0  0
M  END
$$$$
