ZINC000000044758      none
 OpenBabel11202420153D

 43 45  0  0  0  0  0  0  0  0999 V2000
   35.0388   38.8518   70.5579 C   0  0  0  0  0  0  0  0  0  0  0  0
   33.8114   38.5547   69.7355 C   0  0  0  0  0  0  0  0  0  0  0  0
   33.3152   37.3207   69.6579 C   0  0  0  0  0  0  0  0  0  0  0  0
   32.0819   37.0651   68.8335 C   0  0  0  0  0  0  0  0  0  0  0  0
   30.8415   37.3637   69.6782 C   0  0  0  0  0  0  0  0  0  0  0  0
   32.0584   35.5958   68.4077 C   0  0  0  0  0  0  0  0  0  0  0  0
   32.0665   37.9129   67.6393 N   0  0  0  0  0  0  0  0  0  0  0  0
   30.8343   37.7105   66.8656 C   0  0  0  0  0  0  0  0  0  0  0  0
   31.1418   37.8172   65.3942 C   0  0  0  0  0  0  0  0  0  0  0  0
   30.3169   38.5565   64.5673 C   0  0  0  0  0  0  0  0  0  0  0  0
   30.5961   38.6499   63.2167 C   0  0  0  0  0  0  0  0  0  0  0  0
   31.7059   38.0122   62.6947 C   0  0  0  0  0  0  0  0  0  0  0  0
   32.0080   38.1169   61.2495 N   0  0  0  0  0  0  0  0  0  0  0  0
   31.2787   38.7648   60.5202 O   0  0  0  0  0  0  0  0  0  0  0  0
   32.9859   37.5551   60.7895 O   0  0  0  0  0  0  0  0  0  0  0  0
   32.5333   37.2765   63.5222 C   0  0  0  0  0  0  0  0  0  0  0  0
   32.2514   37.1791   64.8720 C   0  0  0  0  0  0  0  0  0  0  0  0
   32.2480   39.2580   67.9449 C   0  0  0  0  0  0  0  0  0  0  0  0
   31.5831   40.2446   67.2330 C   0  0  0  0  0  0  0  0  0  0  0  0
   31.7799   41.5750   67.5512 C   0  0  0  0  0  0  0  0  0  0  0  0
   32.6381   41.9345   68.5764 C   0  0  0  0  0  0  0  0  0  0  0  0
   33.3080   40.9642   69.2961 C   0  0  0  0  0  0  0  0  0  0  0  0
   33.1154   39.6226   68.9852 C   0  0  0  0  0  0  0  0  0  0  0  0
   35.9281   38.7362   69.9384 H   0  0  0  0  0  0  0  0  0  0  0  0
   34.9868   39.8744   70.9318 H   0  0  0  0  0  0  0  0  0  0  0  0
   35.0890   38.1598   71.3986 H   0  0  0  0  0  0  0  0  0  0  0  0
   33.7950   36.5084   70.1838 H   0  0  0  0  0  0  0  0  0  0  0  0
   29.9453   37.1561   69.0936 H   0  0  0  0  0  0  0  0  0  0  0  0
   30.8483   36.7349   70.5686 H   0  0  0  0  0  0  0  0  0  0  0  0
   30.8475   38.4128   69.9742 H   0  0  0  0  0  0  0  0  0  0  0  0
   32.6935   35.4611   67.5321 H   0  0  0  0  0  0  0  0  0  0  0  0
   32.4281   34.9750   69.2237 H   0  0  0  0  0  0  0  0  0  0  0  0
   31.0367   35.3045   68.1636 H   0  0  0  0  0  0  0  0  0  0  0  0
   30.1038   38.4714   67.1402 H   0  0  0  0  0  0  0  0  0  0  0  0
   30.4282   36.7223   67.0812 H   0  0  0  0  0  0  0  0  0  0  0  0
   29.4524   39.0584   64.9760 H   0  0  0  0  0  0  0  0  0  0  0  0
   29.9497   39.2247   62.5702 H   0  0  0  0  0  0  0  0  0  0  0  0
   33.4002   36.7780   63.1143 H   0  0  0  0  0  0  0  0  0  0  0  0
   32.8979   36.6042   65.5186 H   0  0  0  0  0  0  0  0  0  0  0  0
   30.9124   39.9739   66.4309 H   0  0  0  0  0  0  0  0  0  0  0  0
   31.2600   42.3410   66.9949 H   0  0  0  0  0  0  0  0  0  0  0  0
   32.7846   42.9777   68.8141 H   0  0  0  0  0  0  0  0  0  0  0  0
   33.9776   41.2460   70.0952 H   0  0  0  0  0  0  0  0  0  0  0  0
  1  2  1  0  0  0  0
  1 24  1  0  0  0  0
  1 25  1  0  0  0  0
  1 26  1  0  0  0  0
  2 23  1  0  0  0  0
  2  3  2  0  0  0  0
  3  4  1  0  0  0  0
  3 27  1  0  0  0  0
  4  5  1  0  0  0  0
  4  6  1  0  0  0  0
  4  7  1  0  0  0  0
  5 28  1  0  0  0  0
  5 29  1  0  0  0  0
  5 30  1  0  0  0  0
  6 31  1  0  0  0  0
  6 32  1  0  0  0  0
  6 33  1  0  0  0  0
  7  8  1  0  0  0  0
  7 18  1  0  0  0  0
  8  9  1  0  0  0  0
  8 34  1  0  0  0  0
  8 35  1  0  0  0  0
  9 17  2  0  0  0  0
  9 10  1  0  0  0  0
 10 11  2  0  0  0  0
 10 36  1  0  0  0  0
 11 12  1  0  0  0  0
 11 37  1  0  0  0  0
 12 13  1  0  0  0  0
 12 16  2  0  0  0  0
 13 14  2  0  0  0  0
 13 15  2  0  0  0  0
 16 17  1  0  0  0  0
 16 38  1  0  0  0  0
 17 39  1  0  0  0  0
 18 23  2  0  0  0  0
 18 19  1  0  0  0  0
 19 20  2  0  0  0  0
 19 40  1  0  0  0  0
 20 21  1  0  0  0  0
 20 41  1  0  0  0  0
 21 22  2  0  0  0  0
 21 42  1  0  0  0  0
 22 23  1  0  0  0  0
 22 43  1  0  0  0  0
M  END
$$$$
