ZINC000000030120      none
 OpenBabel11202420163D

 32 33  0  0  0  0  0  0  0  0999 V2000
   33.8329   40.3811   58.8679 C   0  0  0  0  0  0  0  0  0  0  0  0
   33.8027   39.1007   58.1840 O   0  0  0  0  0  0  0  0  0  0  0  0
   32.8780   38.2100   58.5936 C   0  0  0  0  0  0  0  0  0  0  0  0
   32.1178   38.4956   59.4974 O   0  0  0  0  0  0  0  0  0  0  0  0
   32.7888   36.8896   57.9453 C   0  0  0  0  0  0  0  0  0  0  0  0
   33.1456   36.7401   56.6023 C   0  0  0  0  0  0  0  0  0  0  0  0
   33.0595   35.5030   56.0020 C   0  0  0  0  0  0  0  0  0  0  0  0
   32.6206   34.4040   56.7233 C   0  0  0  0  0  0  0  0  0  0  0  0
   32.2648   34.5355   58.0501 C   0  0  0  0  0  0  0  0  0  0  0  0
   32.3448   35.7744   58.6725 C   0  0  0  0  0  0  0  0  0  0  0  0
   31.9870   35.9093   60.0105 N   0  0  0  0  0  0  0  0  0  0  0  0
   31.0452   35.1040   60.5408 C   0  0  0  0  0  0  0  0  0  0  0  0
   30.5085   34.2597   59.8500 O   0  0  0  0  0  0  0  0  0  0  0  0
   30.6655   35.2471   61.9603 C   0  0  0  0  0  0  0  0  0  0  0  0
   30.1477   36.4573   62.4303 C   0  0  0  0  0  0  0  0  0  0  0  0
   29.9480   37.7981   61.3459 Cl  0  0  0  0  0  0  0  0  0  0  0  0
   29.7904   36.5819   63.7584 C   0  0  0  0  0  0  0  0  0  0  0  0
   29.9534   35.5165   64.6250 C   0  0  0  0  0  0  0  0  0  0  0  0
   30.4705   34.3169   64.1687 C   0  0  0  0  0  0  0  0  0  0  0  0
   30.8275   34.1750   62.8423 C   0  0  0  0  0  0  0  0  0  0  0  0
   31.4753   32.6689   62.2717 Cl  0  0  0  0  0  0  0  0  0  0  0  0
   34.6209   41.0021   58.4418 H   0  0  0  0  0  0  0  0  0  0  0  0
   32.8715   40.8804   58.7470 H   0  0  0  0  0  0  0  0  0  0  0  0
   34.0289   40.2221   59.9284 H   0  0  0  0  0  0  0  0  0  0  0  0
   33.4879   37.5934   56.0356 H   0  0  0  0  0  0  0  0  0  0  0  0
   33.3312   35.3901   54.9629 H   0  0  0  0  0  0  0  0  0  0  0  0
   32.5564   33.4384   56.2437 H   0  0  0  0  0  0  0  0  0  0  0  0
   31.9237   33.6741   58.6051 H   0  0  0  0  0  0  0  0  0  0  0  0
   32.4152   36.5830   60.5616 H   0  0  0  0  0  0  0  0  0  0  0  0
   29.3859   37.5148   64.1221 H   0  0  0  0  0  0  0  0  0  0  0  0
   29.6756   35.6213   65.6634 H   0  0  0  0  0  0  0  0  0  0  0  0
   30.5954   33.4895   64.8515 H   0  0  0  0  0  0  0  0  0  0  0  0
  1  2  1  0  0  0  0
  1 22  1  0  0  0  0
  1 23  1  0  0  0  0
  1 24  1  0  0  0  0
  2  3  1  0  0  0  0
  3  4  2  0  0  0  0
  3  5  1  0  0  0  0
  5 10  2  0  0  0  0
  5  6  1  0  0  0  0
  6  7  2  0  0  0  0
  6 25  1  0  0  0  0
  7  8  1  0  0  0  0
  7 26  1  0  0  0  0
  8  9  2  0  0  0  0
  8 27  1  0  0  0  0
  9 10  1  0  0  0  0
  9 28  1  0  0  0  0
 10 11  1  0  0  0  0
 11 12  1  0  0  0  0
 11 29  1  0  0  0  0
 12 13  2  0  0  0  0
 12 14  1  0  0  0  0
 14 20  2  0  0  0  0
 14 15  1  0  0  0  0
 15 16  1  0  0  0  0
 15 17  2  0  0  0  0
 17 18  1  0  0  0  0
 17 30  1  0  0  0  0
 18 19  2  0  0  0  0
 18 31  1  0  0  0  0
 19 20  1  0  0  0  0
 19 32  1  0  0  0  0
 20 21  1  0  0  0  0
M  END
$$$$
