ZINC000000046826      none
 OpenBabel11202420153D

 30 33  0  0  0  0  0  0  0  0999 V2000
   29.0711   39.7981   65.8037 Br  0  0  0  0  0  0  0  0  0  0  0  0
   30.1924   38.9700   64.5258 C   0  0  0  0  0  0  0  0  0  0  0  0
   31.3373   38.3066   64.7957 C   0  0  0  0  0  0  0  0  0  0  0  0
   31.8516   37.8533   63.5679 C   0  0  0  0  0  0  0  0  0  0  0  0
   30.9832   38.2688   62.6009 C   0  0  0  0  0  0  0  0  0  0  0  0
   31.1158   38.0231   61.1598 C   0  0  0  0  0  0  0  0  0  0  0  0
   30.2596   37.3738   60.3971 N   0  0  0  0  0  0  0  0  0  0  0  0
   30.6952   37.3554   59.1865 N   0  0  0  0  0  0  0  0  0  0  0  0
   31.8497   37.9823   59.1274 C   0  0  0  0  0  0  0  0  0  0  0  0
   32.6749   38.1768   57.9226 C   0  0  0  0  0  0  0  0  0  0  0  0
   32.9850   39.4548   57.4740 C   0  0  0  0  0  0  0  0  0  0  0  0
   33.7632   39.6350   56.3388 C   0  0  0  0  0  0  0  0  0  0  0  0
   34.2490   38.5816   55.6263 C   0  0  0  0  0  0  0  0  0  0  0  0
   33.9751   37.2616   56.0220 C   0  0  0  0  0  0  0  0  0  0  0  0
   34.4693   36.1637   55.2966 C   0  0  0  0  0  0  0  0  0  0  0  0
   34.1827   34.8990   55.7112 C   0  0  0  0  0  0  0  0  0  0  0  0
   33.4050   34.6746   56.8448 C   0  0  0  0  0  0  0  0  0  0  0  0
   32.9097   35.7159   57.5718 C   0  0  0  0  0  0  0  0  0  0  0  0
   33.1850   37.0298   57.1747 C   0  0  0  0  0  0  0  0  0  0  0  0
   32.1374   38.4203   60.3718 O   0  0  0  0  0  0  0  0  0  0  0  0
   29.9849   38.9497   63.1996 O   0  0  0  0  0  0  0  0  0  0  0  0
   31.7754   38.1534   65.7709 H   0  0  0  0  0  0  0  0  0  0  0  0
   32.7587   37.2864   63.4192 H   0  0  0  0  0  0  0  0  0  0  0  0
   32.6177   40.3153   58.0133 H   0  0  0  0  0  0  0  0  0  0  0  0
   33.9892   40.6389   56.0112 H   0  0  0  0  0  0  0  0  0  0  0  0
   34.8474   38.7624   54.7456 H   0  0  0  0  0  0  0  0  0  0  0  0
   35.0731   36.3226   54.4152 H   0  0  0  0  0  0  0  0  0  0  0  0
   34.5637   34.0570   55.1524 H   0  0  0  0  0  0  0  0  0  0  0  0
   33.1919   33.6614   57.1523 H   0  0  0  0  0  0  0  0  0  0  0  0
   32.3080   35.5284   58.4490 H   0  0  0  0  0  0  0  0  0  0  0  0
  1  2  1  0  0  0  0
  2 21  1  0  0  0  0
  2  3  2  0  0  0  0
  3  4  1  0  0  0  0
  3 22  1  0  0  0  0
  4  5  2  0  0  0  0
  4 23  1  0  0  0  0
  5  6  1  0  0  0  0
  5 21  1  0  0  0  0
  6 20  1  0  0  0  0
  6  7  2  0  0  0  0
  7  8  1  0  0  0  0
  8  9  2  0  0  0  0
  9 10  1  0  0  0  0
  9 20  1  0  0  0  0
 10 19  2  0  0  0  0
 10 11  1  0  0  0  0
 11 12  2  0  0  0  0
 11 24  1  0  0  0  0
 12 13  1  0  0  0  0
 12 25  1  0  0  0  0
 13 14  2  0  0  0  0
 13 26  1  0  0  0  0
 14 19  1  0  0  0  0
 14 15  1  0  0  0  0
 15 16  2  0  0  0  0
 15 27  1  0  0  0  0
 16 17  1  0  0  0  0
 16 28  1  0  0  0  0
 17 18  2  0  0  0  0
 17 29  1  0  0  0  0
 18 19  1  0  0  0  0
 18 30  1  0  0  0  0
M  END
$$$$
