ZINC000000002036      none
 OpenBabel11202420153D

 32 34  0  0  0  0  0  0  0  0999 V2000
   34.1767   40.0440   55.8546 C   0  0  0  0  0  0  0  0  0  0  0  0
   33.6702   38.9137   56.7131 C   0  0  0  0  0  0  0  0  0  0  0  0
   33.6053   37.7019   56.1911 N   0  0  0  0  0  0  0  0  0  0  0  0
   33.1698   36.6695   56.9070 C   0  0  0  0  0  0  0  0  0  0  0  0
   33.1037   35.4024   56.3565 N   0  0  0  0  0  0  0  0  0  0  0  0
   33.5166   35.1845   54.9679 C   0  0  0  0  0  0  0  0  0  0  0  0
   34.0538   33.7847   54.8172 C   0  0  0  0  0  0  0  0  0  0  0  0
   33.9249   33.1211   53.6113 C   0  0  0  0  0  0  0  0  0  0  0  0
   34.4222   31.8388   53.4715 C   0  0  0  0  0  0  0  0  0  0  0  0
   35.0388   31.2163   54.5406 C   0  0  0  0  0  0  0  0  0  0  0  0
   35.1630   31.8780   55.7480 C   0  0  0  0  0  0  0  0  0  0  0  0
   34.6706   33.1622   55.8863 C   0  0  0  0  0  0  0  0  0  0  0  0
   32.7709   36.8997   58.2328 C   0  0  0  0  0  0  0  0  0  0  0  0
   32.2492   36.0690   59.3164 C   0  0  0  0  0  0  0  0  0  0  0  0
   32.0597   36.8796   60.3703 C   0  0  0  0  0  0  0  0  0  0  0  0
   32.4201   38.1608   60.0416 N   0  0  0  0  0  0  0  0  0  0  0  0
   32.3719   38.9230   60.6396 H   0  0  0  0  0  0  0  0  0  0  0  0
   32.8576   38.2066   58.7465 C   0  0  0  0  0  0  0  0  0  0  0  0
   33.3113   39.1744   57.9513 N   0  0  0  0  0  0  0  0  0  0  0  0
   35.2578   40.1279   55.9652 H   0  0  0  0  0  0  0  0  0  0  0  0
   33.9326   39.8451   54.8111 H   0  0  0  0  0  0  0  0  0  0  0  0
   33.7060   40.9763   56.1666 H   0  0  0  0  0  0  0  0  0  0  0  0
   32.7840   34.6578   56.8899 H   0  0  0  0  0  0  0  0  0  0  0  0
   32.6586   35.3174   54.3086 H   0  0  0  0  0  0  0  0  0  0  0  0
   34.2929   35.9022   54.7027 H   0  0  0  0  0  0  0  0  0  0  0  0
   33.4391   33.6057   52.7774 H   0  0  0  0  0  0  0  0  0  0  0  0
   34.3248   31.3217   52.5284 H   0  0  0  0  0  0  0  0  0  0  0  0
   35.4233   30.2128   54.4328 H   0  0  0  0  0  0  0  0  0  0  0  0
   35.6446   31.3915   56.5833 H   0  0  0  0  0  0  0  0  0  0  0  0
   34.7673   33.6790   56.8295 H   0  0  0  0  0  0  0  0  0  0  0  0
   32.0537   35.0076   59.2771 H   0  0  0  0  0  0  0  0  0  0  0  0
   31.6806   36.5687   61.3326 H   0  0  0  0  0  0  0  0  0  0  0  0
  1  2  1  0  0  0  0
  1 20  1  0  0  0  0
  1 21  1  0  0  0  0
  1 22  1  0  0  0  0
  2 19  2  0  0  0  0
  2  3  1  0  0  0  0
  3  4  2  0  0  0  0
  4  5  1  0  0  0  0
  4 13  1  0  0  0  0
  5  6  1  0  0  0  0
  5 23  1  0  0  0  0
  6  7  1  0  0  0  0
  6 24  1  0  0  0  0
  6 25  1  0  0  0  0
  7 12  2  0  0  0  0
  7  8  1  0  0  0  0
  8  9  2  0  0  0  0
  8 26  1  0  0  0  0
  9 10  1  0  0  0  0
  9 27  1  0  0  0  0
 10 11  2  0  0  0  0
 10 28  1  0  0  0  0
 11 12  1  0  0  0  0
 11 29  1  0  0  0  0
 12 30  1  0  0  0  0
 13 18  2  0  0  0  0
 13 14  1  0  0  0  0
 14 15  2  0  0  0  0
 14 31  1  0  0  0  0
 15 16  1  0  0  0  0
 15 32  1  0  0  0  0
 16 17  1  0  0  0  0
 16 18  1  0  0  0  0
 18 19  1  0  0  0  0
M  END
$$$$
