ZINC000000029388      none
 OpenBabel11202420163D

 40 41  0  0  0  0  0  0  0  0999 V2000
   28.9832   36.4983   62.1510 O   0  0  0  0  0  0  0  0  0  0  0  0
   30.0878   37.3654   62.3678 S   0  0  0  0  0  0  0  0  0  0  0  0
   29.9467   38.7594   62.6058 O   0  0  0  0  0  0  0  0  0  0  0  0
   31.1308   37.2048   60.9568 C   0  0  0  0  0  0  0  0  0  0  0  0
   31.4005   35.9532   60.4357 C   0  0  0  0  0  0  0  0  0  0  0  0
   32.2149   35.8275   59.3257 C   0  0  0  0  0  0  0  0  0  0  0  0
   32.7679   36.9525   58.7432 C   0  0  0  0  0  0  0  0  0  0  0  0
   32.5024   38.2037   59.2677 C   0  0  0  0  0  0  0  0  0  0  0  0
   31.6839   38.3298   60.3744 C   0  0  0  0  0  0  0  0  0  0  0  0
   30.9171   36.7514   63.6630 N   0  0  0  0  0  0  0  0  0  0  0  0
   32.1991   37.3405   64.0578 C   0  0  0  0  0  0  0  0  0  0  0  0
   31.9554   38.4607   65.0709 C   0  0  0  0  0  0  0  0  0  0  0  0
   31.3016   37.9264   66.2237 O   0  0  0  0  0  0  0  0  0  0  0  0
   30.3660   35.6233   64.4177 C   0  0  0  0  0  0  0  0  0  0  0  0
   30.1936   34.4220   63.4862 C   0  0  0  0  0  0  0  0  0  0  0  0
   29.6181   33.2437   64.2743 C   0  0  0  0  0  0  0  0  0  0  0  0
   28.2591   33.6357   64.8578 C   0  0  0  0  0  0  0  0  0  0  0  0
   28.4314   34.8371   65.7894 C   0  0  0  0  0  0  0  0  0  0  0  0
   29.0070   36.0154   65.0012 C   0  0  0  0  0  0  0  0  0  0  0  0
   30.9721   35.0738   60.8933 H   0  0  0  0  0  0  0  0  0  0  0  0
   32.4226   34.8499   58.9163 H   0  0  0  0  0  0  0  0  0  0  0  0
   33.4078   36.8540   57.8789 H   0  0  0  0  0  0  0  0  0  0  0  0
   32.9348   39.0827   58.8128 H   0  0  0  0  0  0  0  0  0  0  0  0
   31.4767   39.3073   60.7843 H   0  0  0  0  0  0  0  0  0  0  0  0
   32.8280   36.5730   64.5091 H   0  0  0  0  0  0  0  0  0  0  0  0
   32.6979   37.7479   63.1784 H   0  0  0  0  0  0  0  0  0  0  0  0
   32.9092   38.8988   65.3645 H   0  0  0  0  0  0  0  0  0  0  0  0
   31.3265   39.2282   64.6196 H   0  0  0  0  0  0  0  0  0  0  0  0
   31.1153   38.5822   66.9096 H   0  0  0  0  0  0  0  0  0  0  0  0
   31.0468   35.3606   65.2274 H   0  0  0  0  0  0  0  0  0  0  0  0
   29.5129   34.6848   62.6766 H   0  0  0  0  0  0  0  0  0  0  0  0
   31.1618   34.1427   63.0705 H   0  0  0  0  0  0  0  0  0  0  0  0
   30.2989   32.9809   65.0840 H   0  0  0  0  0  0  0  0  0  0  0  0
   29.4952   32.3879   63.6107 H   0  0  0  0  0  0  0  0  0  0  0  0
   27.8490   32.7964   65.4194 H   0  0  0  0  0  0  0  0  0  0  0  0
   27.5783   33.8985   64.0482 H   0  0  0  0  0  0  0  0  0  0  0  0
   29.1121   34.5744   66.5991 H   0  0  0  0  0  0  0  0  0  0  0  0
   27.4632   35.1163   66.2051 H   0  0  0  0  0  0  0  0  0  0  0  0
   29.1298   36.8712   65.6650 H   0  0  0  0  0  0  0  0  0  0  0  0
   28.3261   36.2781   64.1916 H   0  0  0  0  0  0  0  0  0  0  0  0
  1  2  2  0  0  0  0
  2  3  2  0  0  0  0
  2  4  1  0  0  0  0
  2 10  1  0  0  0  0
  4  9  2  0  0  0  0
  4  5  1  0  0  0  0
  5  6  2  0  0  0  0
  5 20  1  0  0  0  0
  6  7  1  0  0  0  0
  6 21  1  0  0  0  0
  7  8  2  0  0  0  0
  7 22  1  0  0  0  0
  8  9  1  0  0  0  0
  8 23  1  0  0  0  0
  9 24  1  0  0  0  0
 10 11  1  0  0  0  0
 10 14  1  0  0  0  0
 11 12  1  0  0  0  0
 11 25  1  0  0  0  0
 11 26  1  0  0  0  0
 12 13  1  0  0  0  0
 12 27  1  0  0  0  0
 12 28  1  0  0  0  0
 13 29  1  0  0  0  0
 14 19  1  0  0  0  0
 14 15  1  0  0  0  0
 14 30  1  0  0  0  0
 15 16  1  0  0  0  0
 15 31  1  0  0  0  0
 15 32  1  0  0  0  0
 16 17  1  0  0  0  0
 16 33  1  0  0  0  0
 16 34  1  0  0  0  0
 17 18  1  0  0  0  0
 17 35  1  0  0  0  0
 17 36  1  0  0  0  0
 18 19  1  0  0  0  0
 18 37  1  0  0  0  0
 18 38  1  0  0  0  0
 19 39  1  0  0  0  0
 19 40  1  0  0  0  0
M  END
$$$$
