ZINC000000000076      none
 OpenBabel11202420153D

 28 29  0  0  1  0  0  0  0  0999 V2000
   30.9698   38.2088   62.0115 O   0  0  0  0  0  0  0  0  0  0  0  0
   31.8596   37.4728   61.6418 C   0  0  0  0  0  0  0  0  0  0  0  0
   32.2042   37.3947   60.2132 C   0  0  0  0  0  0  0  0  0  0  0  0
   32.1070   36.1769   59.5323 C   0  0  0  0  0  0  0  0  0  0  0  0
   32.4321   36.1117   58.1940 C   0  0  0  0  0  0  0  0  0  0  0  0
   32.8533   37.2474   57.5243 C   0  0  0  0  0  0  0  0  0  0  0  0
   32.9571   38.4550   58.1924 C   0  0  0  0  0  0  0  0  0  0  0  0
   32.6310   38.5376   59.5295 C   0  0  0  0  0  0  0  0  0  0  0  0
   32.6129   36.6383   62.6453 C   0  0  1  0  0  0  0  0  0  0  0  0
   33.6320   36.4782   62.2930 H   0  0  0  0  0  0  0  0  0  0  0  0
   32.6448   37.3179   63.9019 O   0  0  0  0  0  0  0  0  0  0  0  0
   31.9239   35.3084   62.8109 C   0  0  0  0  0  0  0  0  0  0  0  0
   30.9427   35.1531   63.7723 C   0  0  0  0  0  0  0  0  0  0  0  0
   30.3077   33.9344   63.9212 C   0  0  0  0  0  0  0  0  0  0  0  0
   30.6599   32.8683   63.1149 C   0  0  0  0  0  0  0  0  0  0  0  0
   31.6447   33.0220   62.1570 C   0  0  0  0  0  0  0  0  0  0  0  0
   32.2769   34.2419   62.0051 C   0  0  0  0  0  0  0  0  0  0  0  0
   31.7786   35.2898   60.0536 H   0  0  0  0  0  0  0  0  0  0  0  0
   32.3577   35.1721   57.6668 H   0  0  0  0  0  0  0  0  0  0  0  0
   33.1065   37.1899   56.4760 H   0  0  0  0  0  0  0  0  0  0  0  0
   33.2907   39.3359   57.6640 H   0  0  0  0  0  0  0  0  0  0  0  0
   32.7089   39.4815   60.0485 H   0  0  0  0  0  0  0  0  0  0  0  0
   33.0750   38.1833   63.8703 H   0  0  0  0  0  0  0  0  0  0  0  0
   30.6701   35.9850   64.4048 H   0  0  0  0  0  0  0  0  0  0  0  0
   29.5380   33.8145   64.6693 H   0  0  0  0  0  0  0  0  0  0  0  0
   30.1655   31.9154   63.2331 H   0  0  0  0  0  0  0  0  0  0  0  0
   31.9200   32.1891   61.5270 H   0  0  0  0  0  0  0  0  0  0  0  0
   33.0462   34.3621   61.2567 H   0  0  0  0  0  0  0  0  0  0  0  0
  1  2  2  0  0  0  0
  2  3  1  0  0  0  0
  2  9  1  0  0  0  0
  3  8  2  0  0  0  0
  3  4  1  0  0  0  0
  4  5  2  0  0  0  0
  4 18  1  0  0  0  0
  5  6  1  0  0  0  0
  5 19  1  0  0  0  0
  6  7  2  0  0  0  0
  6 20  1  0  0  0  0
  7  8  1  0  0  0  0
  7 21  1  0  0  0  0
  8 22  1  0  0  0  0
  9 10  1  6  0  0  0
  9 11  1  0  0  0  0
  9 12  1  0  0  0  0
 11 23  1  0  0  0  0
 12 17  2  0  0  0  0
 12 13  1  0  0  0  0
 13 14  2  0  0  0  0
 13 24  1  0  0  0  0
 14 15  1  0  0  0  0
 14 25  1  0  0  0  0
 15 16  2  0  0  0  0
 15 26  1  0  0  0  0
 16 17  1  0  0  0  0
 16 27  1  0  0  0  0
 17 28  1  0  0  0  0
M  END
$$$$
