ZINC000000013054      none
 OpenBabel11202420153D

 24 26  0  0  0  0  0  0  0  0999 V2000
   31.5178   33.1168   60.5827 C   0  0  0  0  0  0  0  0  0  0  0  0
   31.8001   34.5735   60.3195 C   0  0  0  0  0  0  0  0  0  0  0  0
   32.2696   35.0930   59.1577 C   0  0  0  0  0  0  0  0  0  0  0  0
   32.3807   36.4346   59.3381 N   0  0  0  0  0  0  0  0  0  0  0  0
   31.9811   36.7037   60.6198 C   0  0  0  0  0  0  0  0  0  0  0  0
   31.6365   35.5677   61.1898 N   0  0  0  0  0  0  0  0  0  0  0  0
   32.0016   38.0938   61.1025 C   0  0  0  0  0  0  0  0  0  0  0  0
   31.6503   38.3532   62.2383 O   0  0  0  0  0  0  0  0  0  0  0  0
   32.4141   39.0777   60.2784 N   0  0  0  0  0  0  0  0  0  0  0  0
   32.4299   39.9949   60.5936 H   0  0  0  0  0  0  0  0  0  0  0  0
   32.8172   38.7864   58.9770 C   0  0  0  0  0  0  0  0  0  0  0  0
   33.2391   39.8121   58.1389 C   0  0  0  0  0  0  0  0  0  0  0  0
   33.6394   39.5295   56.8488 C   0  0  0  0  0  0  0  0  0  0  0  0
   33.6234   38.2258   56.3834 C   0  0  0  0  0  0  0  0  0  0  0  0
   33.2068   37.1995   57.2069 C   0  0  0  0  0  0  0  0  0  0  0  0
   32.8013   37.4727   58.5073 C   0  0  0  0  0  0  0  0  0  0  0  0
   30.4842   32.8934   60.3181 H   0  0  0  0  0  0  0  0  0  0  0  0
   31.6771   32.9010   61.6392 H   0  0  0  0  0  0  0  0  0  0  0  0
   32.1878   32.5023   59.9812 H   0  0  0  0  0  0  0  0  0  0  0  0
   32.5075   34.5439   58.2586 H   0  0  0  0  0  0  0  0  0  0  0  0
   33.2534   40.8307   58.4974 H   0  0  0  0  0  0  0  0  0  0  0  0
   33.9660   40.3285   56.1997 H   0  0  0  0  0  0  0  0  0  0  0  0
   33.9378   38.0111   55.3727 H   0  0  0  0  0  0  0  0  0  0  0  0
   33.1957   36.1838   56.8400 H   0  0  0  0  0  0  0  0  0  0  0  0
  1  2  1  0  0  0  0
  1 17  1  0  0  0  0
  1 18  1  0  0  0  0
  1 19  1  0  0  0  0
  2  6  1  0  0  0  0
  2  3  2  0  0  0  0
  3  4  1  0  0  0  0
  3 20  1  0  0  0  0
  4 16  1  0  0  0  0
  4  5  1  0  0  0  0
  5  6  2  0  0  0  0
  5  7  1  0  0  0  0
  7  8  2  0  0  0  0
  7  9  1  0  0  0  0
  9 10  1  0  0  0  0
  9 11  1  0  0  0  0
 11 16  2  0  0  0  0
 11 12  1  0  0  0  0
 12 13  2  0  0  0  0
 12 21  1  0  0  0  0
 13 14  1  0  0  0  0
 13 22  1  0  0  0  0
 14 15  2  0  0  0  0
 14 23  1  0  0  0  0
 15 16  1  0  0  0  0
 15 24  1  0  0  0  0
M  END
$$$$
