ZINC000000009017      none
 OpenBabel11202420153D

 42 44  0  0  1  0  0  0  0  0999 V2000
   31.5573   32.8972   62.1687 C   0  0  0  0  0  0  0  0  0  0  0  0
   31.3579   34.0723   61.3392 O   0  0  0  0  0  0  0  0  0  0  0  0
   32.0299   35.1821   61.6831 C   0  0  0  0  0  0  0  0  0  0  0  0
   32.7605   35.1722   62.6454 O   0  0  0  0  0  0  0  0  0  0  0  0
   31.8729   36.4406   60.8691 C   0  0  2  0  0  0  0  0  0  0  0  0
   32.4908   37.2299   61.2974 H   0  0  0  0  0  0  0  0  0  0  0  0
   30.4065   36.8770   60.8824 C   0  0  0  0  0  0  0  0  0  0  0  0
   30.1082   37.5964   62.1725 C   0  0  0  0  0  0  0  0  0  0  0  0
   30.2194   38.9155   62.3954 C   0  0  0  0  0  0  0  0  0  0  0  0
   29.8624   39.2024   63.6847 N   0  0  0  0  0  0  0  0  0  0  0  0
   29.8618   40.0889   64.0786 H   0  0  0  0  0  0  0  0  0  0  0  0
   29.5038   38.0456   64.3395 C   0  0  0  0  0  0  0  0  0  0  0  0
   29.0690   37.7724   65.6326 C   0  0  0  0  0  0  0  0  0  0  0  0
   28.7799   36.4761   65.9977 C   0  0  0  0  0  0  0  0  0  0  0  0
   28.9179   35.4367   65.0875 C   0  0  0  0  0  0  0  0  0  0  0  0
   29.3433   35.6823   63.8128 C   0  0  0  0  0  0  0  0  0  0  0  0
   29.6358   36.9898   63.4195 C   0  0  0  0  0  0  0  0  0  0  0  0
   32.2939   36.1854   59.4892 N   0  0  0  0  0  0  0  0  0  0  0  0
   32.7974   37.1427   58.7788 C   0  0  0  0  0  0  0  0  0  0  0  0
   33.2211   36.8859   57.3901 C   0  0  0  0  0  0  0  0  0  0  0  0
   33.7597   37.9196   56.6193 C   0  0  0  0  0  0  0  0  0  0  0  0
   34.1588   37.6742   55.3241 C   0  0  0  0  0  0  0  0  0  0  0  0
   34.0169   36.4034   54.7802 C   0  0  0  0  0  0  0  0  0  0  0  0
   34.4067   36.1670   53.5014 O   0  0  0  0  0  0  0  0  0  0  0  0
   33.4770   35.3738   55.5415 C   0  0  0  0  0  0  0  0  0  0  0  0
   33.0799   35.6094   56.8391 C   0  0  0  0  0  0  0  0  0  0  0  0
   31.2529   33.1188   63.1917 H   0  0  0  0  0  0  0  0  0  0  0  0
   30.9579   32.0732   61.7816 H   0  0  0  0  0  0  0  0  0  0  0  0
   32.6108   32.6179   62.1556 H   0  0  0  0  0  0  0  0  0  0  0  0
   30.2187   37.5453   60.0420 H   0  0  0  0  0  0  0  0  0  0  0  0
   29.7655   35.9994   60.7991 H   0  0  0  0  0  0  0  0  0  0  0  0
   30.5427   39.6426   61.6652 H   0  0  0  0  0  0  0  0  0  0  0  0
   28.9590   38.5740   66.3479 H   0  0  0  0  0  0  0  0  0  0  0  0
   28.4430   36.2659   67.0020 H   0  0  0  0  0  0  0  0  0  0  0  0
   28.6873   34.4258   65.3900 H   0  0  0  0  0  0  0  0  0  0  0  0
   29.4478   34.8689   63.1101 H   0  0  0  0  0  0  0  0  0  0  0  0
   32.9072   38.1299   59.2031 H   0  0  0  0  0  0  0  0  0  0  0  0
   33.8664   38.9088   57.0398 H   0  0  0  0  0  0  0  0  0  0  0  0
   34.5789   38.4716   54.7290 H   0  0  0  0  0  0  0  0  0  0  0  0
   34.2697   35.2549   53.2107 H   0  0  0  0  0  0  0  0  0  0  0  0
   33.3682   34.3876   55.1149 H   0  0  0  0  0  0  0  0  0  0  0  0
   32.6604   34.8086   57.4301 H   0  0  0  0  0  0  0  0  0  0  0  0
  1  2  1  0  0  0  0
  1 27  1  0  0  0  0
  1 28  1  0  0  0  0
  1 29  1  0  0  0  0
  2  3  1  0  0  0  0
  3  4  2  0  0  0  0
  3  5  1  0  0  0  0
  5  6  1  1  0  0  0
  5  7  1  0  0  0  0
  5 18  1  0  0  0  0
  7  8  1  0  0  0  0
  7 30  1  0  0  0  0
  7 31  1  0  0  0  0
  8 17  1  0  0  0  0
  8  9  2  0  0  0  0
  9 10  1  0  0  0  0
  9 32  1  0  0  0  0
 10 11  1  0  0  0  0
 10 12  1  0  0  0  0
 12 17  2  0  0  0  0
 12 13  1  0  0  0  0
 13 14  2  0  0  0  0
 13 33  1  0  0  0  0
 14 15  1  0  0  0  0
 14 34  1  0  0  0  0
 15 16  2  0  0  0  0
 15 35  1  0  0  0  0
 16 17  1  0  0  0  0
 16 36  1  0  0  0  0
 18 19  2  0  0  0  0
 19 20  1  0  0  0  0
 19 37  1  0  0  0  0
 20 26  2  0  0  0  0
 20 21  1  0  0  0  0
 21 22  2  0  0  0  0
 21 38  1  0  0  0  0
 22 23  1  0  0  0  0
 22 39  1  0  0  0  0
 23 24  1  0  0  0  0
 23 25  2  0  0  0  0
 24 40  1  0  0  0  0
 25 26  1  0  0  0  0
 25 41  1  0  0  0  0
 26 42  1  0  0  0  0
M  END
$$$$
