ZINC000000039342      none
 OpenBabel11202420153D

 27 28  0  0  0  0  0  0  0  0999 V2000
   31.6794   36.1993   61.7378 C   0  0  0  0  0  0  0  0  0  0  0  0
   32.1234   36.8704   60.4636 C   0  0  0  0  0  0  0  0  0  0  0  0
   32.2547   38.2521   60.2675 C   0  0  0  0  0  0  0  0  0  0  0  0
   32.6709   38.4555   58.9985 C   0  0  0  0  0  0  0  0  0  0  0  0
   32.9403   39.7904   58.3529 C   0  0  0  0  0  0  0  0  0  0  0  0
   32.8085   37.2348   58.4102 N   0  0  0  0  0  0  0  0  0  0  0  0
   33.2099   37.0035   57.1446 C   0  0  0  0  0  0  0  0  0  0  0  0
   33.4879   37.9348   56.4157 O   0  0  0  0  0  0  0  0  0  0  0  0
   33.3116   35.6195   56.6443 C   0  0  0  0  0  0  0  0  0  0  0  0
   34.2060   35.1462   55.6545 C   0  0  0  0  0  0  0  0  0  0  0  0
   33.9403   33.8251   55.5275 C   0  0  0  0  0  0  0  0  0  0  0  0
   34.6276   32.8597   54.5968 C   0  0  0  0  0  0  0  0  0  0  0  0
   32.9350   33.5345   56.3899 N   0  0  0  0  0  0  0  0  0  0  0  0
   32.5394   32.6564   56.5061 H   0  0  0  0  0  0  0  0  0  0  0  0
   32.5826   34.5908   57.0307 N   0  0  0  0  0  0  0  0  0  0  0  0
   32.4573   36.2627   59.3559 N   0  0  0  0  0  0  0  0  0  0  0  0
   32.5487   35.9945   62.3626 H   0  0  0  0  0  0  0  0  0  0  0  0
   30.9931   36.8550   62.2737 H   0  0  0  0  0  0  0  0  0  0  0  0
   31.1750   35.2631   61.4986 H   0  0  0  0  0  0  0  0  0  0  0  0
   32.0555   39.0195   61.0010 H   0  0  0  0  0  0  0  0  0  0  0  0
   32.0290   40.1554   57.8792 H   0  0  0  0  0  0  0  0  0  0  0  0
   33.7213   39.6791   57.6007 H   0  0  0  0  0  0  0  0  0  0  0  0
   33.2654   40.5020   59.1119 H   0  0  0  0  0  0  0  0  0  0  0  0
   34.9464   35.7185   55.1153 H   0  0  0  0  0  0  0  0  0  0  0  0
   34.1038   32.8410   53.6411 H   0  0  0  0  0  0  0  0  0  0  0  0
   35.6584   33.1777   54.4398 H   0  0  0  0  0  0  0  0  0  0  0  0
   34.6181   31.8622   55.0360 H   0  0  0  0  0  0  0  0  0  0  0  0
  1  2  1  0  0  0  0
  1 17  1  0  0  0  0
  1 18  1  0  0  0  0
  1 19  1  0  0  0  0
  2 16  2  0  0  0  0
  2  3  1  0  0  0  0
  3  4  2  0  0  0  0
  3 20  1  0  0  0  0
  4  5  1  0  0  0  0
  4  6  1  0  0  0  0
  5 21  1  0  0  0  0
  5 22  1  0  0  0  0
  5 23  1  0  0  0  0
  6  7  1  0  0  0  0
  6 16  1  0  0  0  0
  7  8  2  0  0  0  0
  7  9  1  0  0  0  0
  9 15  2  0  0  0  0
  9 10  1  0  0  0  0
 10 11  2  0  0  0  0
 10 24  1  0  0  0  0
 11 12  1  0  0  0  0
 11 13  1  0  0  0  0
 12 25  1  0  0  0  0
 12 26  1  0  0  0  0
 12 27  1  0  0  0  0
 13 14  1  0  0  0  0
 13 15  1  0  0  0  0
M  END
$$$$
