ZINC000000002226      none
 OpenBabel11202420153D

 29 31  0  0  0  0  0  0  0  0999 V2000
   31.2932   36.5555   61.9896 C   0  0  0  0  0  0  0  0  0  0  0  0
   31.8528   36.8683   60.6257 C   0  0  0  0  0  0  0  0  0  0  0  0
   31.9490   35.9915   59.6187 C   0  0  0  0  0  0  0  0  0  0  0  0
   32.5457   36.7246   58.4933 C   0  0  0  0  0  0  0  0  0  0  0  0
   32.8944   36.3821   57.1942 C   0  0  0  0  0  0  0  0  0  0  0  0
   33.4568   37.3485   56.3608 C   0  0  0  0  0  0  0  0  0  0  0  0
   33.8376   37.0211   54.9832 C   0  0  0  0  0  0  0  0  0  0  0  0
   33.6307   35.6339   54.4320 C   0  0  0  0  0  0  0  0  0  0  0  0
   34.3810   38.0013   54.2178 C   0  0  0  0  0  0  0  0  0  0  0  0
   34.5641   39.2925   54.7568 C   0  0  0  0  0  0  0  0  0  0  0  0
   35.0482   40.1636   54.0569 O   0  0  0  0  0  0  0  0  0  0  0  0
   34.2143   39.5877   56.0180 O   0  0  0  0  0  0  0  0  0  0  0  0
   33.6678   38.6598   56.8359 C   0  0  0  0  0  0  0  0  0  0  0  0
   33.3165   38.9908   58.1328 C   0  0  0  0  0  0  0  0  0  0  0  0
   33.5426   40.3923   58.6388 C   0  0  0  0  0  0  0  0  0  0  0  0
   32.7566   38.0350   58.9679 C   0  0  0  0  0  0  0  0  0  0  0  0
   32.3263   38.0684   60.2459 O   0  0  0  0  0  0  0  0  0  0  0  0
   31.3339   37.4489   62.6127 H   0  0  0  0  0  0  0  0  0  0  0  0
   30.2583   36.2279   61.8913 H   0  0  0  0  0  0  0  0  0  0  0  0
   31.8828   35.7634   62.4513 H   0  0  0  0  0  0  0  0  0  0  0  0
   31.6481   34.9544   59.6307 H   0  0  0  0  0  0  0  0  0  0  0  0
   32.7323   35.3773   56.8327 H   0  0  0  0  0  0  0  0  0  0  0  0
   32.6428   35.5677   53.9761 H   0  0  0  0  0  0  0  0  0  0  0  0
   34.3922   35.4241   53.6809 H   0  0  0  0  0  0  0  0  0  0  0  0
   33.7073   34.9066   55.2402 H   0  0  0  0  0  0  0  0  0  0  0  0
   34.6722   37.7938   53.1987 H   0  0  0  0  0  0  0  0  0  0  0  0
   32.6588   40.9979   58.4383 H   0  0  0  0  0  0  0  0  0  0  0  0
   33.7286   40.3652   59.7125 H   0  0  0  0  0  0  0  0  0  0  0  0
   34.4038   40.8272   58.1317 H   0  0  0  0  0  0  0  0  0  0  0  0
  1  2  1  0  0  0  0
  1 18  1  0  0  0  0
  1 19  1  0  0  0  0
  1 20  1  0  0  0  0
  2 17  1  0  0  0  0
  2  3  2  0  0  0  0
  3  4  1  0  0  0  0
  3 21  1  0  0  0  0
  4 16  2  0  0  0  0
  4  5  1  0  0  0  0
  5  6  2  0  0  0  0
  5 22  1  0  0  0  0
  6 13  1  0  0  0  0
  6  7  1  0  0  0  0
  7  8  1  0  0  0  0
  7  9  2  0  0  0  0
  8 23  1  0  0  0  0
  8 24  1  0  0  0  0
  8 25  1  0  0  0  0
  9 10  1  0  0  0  0
  9 26  1  0  0  0  0
 10 11  2  0  0  0  0
 10 12  1  0  0  0  0
 12 13  1  0  0  0  0
 13 14  2  0  0  0  0
 14 15  1  0  0  0  0
 14 16  1  0  0  0  0
 15 27  1  0  0  0  0
 15 28  1  0  0  0  0
 15 29  1  0  0  0  0
 16 17  1  0  0  0  0
M  END
$$$$
