ZINC000000036102      none
 OpenBabel11202420153D

 30 31  0  0  0  0  0  0  0  0999 V2000
   33.2411   40.4864   59.3207 N   0  0  0  0  0  0  0  0  0  0  0  0
   33.0921   39.2036   58.8068 C   0  0  0  0  0  0  0  0  0  0  0  0
   32.6535   38.1773   59.4653 N   0  0  0  0  0  0  0  0  0  0  0  0
   32.5866   36.9983   58.7558 N   0  0  0  0  0  0  0  0  0  0  0  0
   32.9712   37.0657   57.5196 C   0  0  0  0  0  0  0  0  0  0  0  0
   32.9926   35.7201   56.3822 S   0  0  0  0  0  0  0  0  0  0  0  0
   33.2796   34.2847   57.4535 C   0  0  0  0  0  0  0  0  0  0  0  0
   32.1615   34.1763   58.4582 C   0  0  0  0  0  0  0  0  0  0  0  0
   31.0178   34.0354   58.0798 O   0  0  0  0  0  0  0  0  0  0  0  0
   32.4326   34.2357   59.7770 N   0  0  0  0  0  0  0  0  0  0  0  0
   31.3456   34.1304   60.7536 C   0  0  0  0  0  0  0  0  0  0  0  0
   30.8099   35.5345   61.1016 C   0  0  0  0  0  0  0  0  0  0  0  0
   30.4856   35.4523   62.6148 C   0  0  0  0  0  0  0  0  0  0  0  0
   31.6397   34.5783   63.1655 C   0  0  0  0  0  0  0  0  0  0  0  0
   31.8727   33.5222   62.0652 C   0  0  0  0  0  0  0  0  0  0  0  0
   33.4685   38.7152   57.1579 S   0  0  0  0  0  0  0  0  0  0  0  0
   33.0085   40.6688   60.2445 H   0  0  0  0  0  0  0  0  0  0  0  0
   33.5776   41.1993   58.7554 H   0  0  0  0  0  0  0  0  0  0  0  0
   33.3123   33.3796   56.8471 H   0  0  0  0  0  0  0  0  0  0  0  0
   34.2280   34.4059   57.9770 H   0  0  0  0  0  0  0  0  0  0  0  0
   33.3472   34.3483   60.0796 H   0  0  0  0  0  0  0  0  0  0  0  0
   30.5420   33.5130   60.3524 H   0  0  0  0  0  0  0  0  0  0  0  0
   31.5728   36.2907   60.9158 H   0  0  0  0  0  0  0  0  0  0  0  0
   29.9085   35.7517   60.5287 H   0  0  0  0  0  0  0  0  0  0  0  0
   29.5229   34.9677   62.7770 H   0  0  0  0  0  0  0  0  0  0  0  0
   30.4997   36.4424   63.0704 H   0  0  0  0  0  0  0  0  0  0  0  0
   31.3432   34.0983   64.0982 H   0  0  0  0  0  0  0  0  0  0  0  0
   32.5375   35.1780   63.3147 H   0  0  0  0  0  0  0  0  0  0  0  0
   31.3241   32.6103   62.3009 H   0  0  0  0  0  0  0  0  0  0  0  0
   32.9371   33.3055   61.9752 H   0  0  0  0  0  0  0  0  0  0  0  0
  1  2  1  0  0  0  0
  1 17  1  0  0  0  0
  1 18  1  0  0  0  0
  2 16  1  0  0  0  0
  2  3  2  0  0  0  0
  3  4  1  0  0  0  0
  4  5  2  0  0  0  0
  5  6  1  0  0  0  0
  5 16  1  0  0  0  0
  6  7  1  0  0  0  0
  7  8  1  0  0  0  0
  7 19  1  0  0  0  0
  7 20  1  0  0  0  0
  8  9  2  0  0  0  0
  8 10  1  0  0  0  0
 10 11  1  0  0  0  0
 10 21  1  0  0  0  0
 11 15  1  0  0  0  0
 11 12  1  0  0  0  0
 11 22  1  0  0  0  0
 12 13  1  0  0  0  0
 12 23  1  0  0  0  0
 12 24  1  0  0  0  0
 13 14  1  0  0  0  0
 13 25  1  0  0  0  0
 13 26  1  0  0  0  0
 14 15  1  0  0  0  0
 14 27  1  0  0  0  0
 14 28  1  0  0  0  0
 15 29  1  0  0  0  0
 15 30  1  0  0  0  0
M  END
$$$$
