ZINC000000032769      none
 OpenBabel11202420153D

 38 39  0  0  1  0  0  0  0  0999 V2000
   28.8231   35.2096   66.3831 C   0  0  0  0  0  0  0  0  0  0  0  0
   29.9909   35.0866   65.4025 C   0  0  0  0  0  0  0  0  0  0  0  0
   29.5202   34.3683   64.1362 C   0  0  0  0  0  0  0  0  0  0  0  0
   30.4781   36.4233   65.0532 N   0  0  0  0  0  0  0  0  0  0  0  0
   29.6612   37.4613   64.4111 C   0  0  0  0  0  0  0  0  0  0  0  0
   30.6690   38.4909   63.8536 C   0  0  2  0  0  0  0  0  0  0  0  0
   30.2807   39.5053   63.9446 H   0  0  0  0  0  0  0  0  0  0  0  0
   31.0233   38.1783   62.4225 C   0  0  0  0  0  0  0  0  0  0  0  0
   30.8595   39.0157   61.5605 O   0  0  0  0  0  0  0  0  0  0  0  0
   31.5220   36.9683   62.1007 N   0  0  0  0  0  0  0  0  0  0  0  0
   31.8511   36.6778   60.7710 C   0  0  0  0  0  0  0  0  0  0  0  0
   31.7613   35.3740   60.3014 C   0  0  0  0  0  0  0  0  0  0  0  0
   32.0868   35.0895   58.9899 C   0  0  0  0  0  0  0  0  0  0  0  0
   32.5076   36.1026   58.1445 C   0  0  0  0  0  0  0  0  0  0  0  0
   32.8305   35.8214   56.8631 F   0  0  0  0  0  0  0  0  0  0  0  0
   32.5928   37.4040   58.6093 C   0  0  0  0  0  0  0  0  0  0  0  0
   33.0375   38.4857   57.7021 N   0  0  0  0  0  0  0  0  0  0  0  0
   33.3283   38.2309   56.5471 O   0  0  0  0  0  0  0  0  0  0  0  0
   33.1127   39.6307   58.1106 O   0  0  0  0  0  0  0  0  0  0  0  0
   32.2682   37.6928   59.9206 C   0  0  0  0  0  0  0  0  0  0  0  0
   31.8855   38.2783   64.7840 C   0  0  0  0  0  0  0  0  0  0  0  0
   31.7300   36.8572   65.2792 C   0  0  0  0  0  0  0  0  0  0  0  0
   32.6077   36.2043   65.8031 O   0  0  0  0  0  0  0  0  0  0  0  0
   29.1583   35.7212   67.2853 H   0  0  0  0  0  0  0  0  0  0  0  0
   28.0180   35.7801   65.9197 H   0  0  0  0  0  0  0  0  0  0  0  0
   28.4606   34.2150   66.6430 H   0  0  0  0  0  0  0  0  0  0  0  0
   30.7959   34.5161   65.8658 H   0  0  0  0  0  0  0  0  0  0  0  0
   30.3524   34.2808   63.4376 H   0  0  0  0  0  0  0  0  0  0  0  0
   29.1577   33.3738   64.3961 H   0  0  0  0  0  0  0  0  0  0  0  0
   28.7152   34.9388   63.6729 H   0  0  0  0  0  0  0  0  0  0  0  0
   29.0063   37.9331   65.1437 H   0  0  0  0  0  0  0  0  0  0  0  0
   29.0734   37.0315   63.6001 H   0  0  0  0  0  0  0  0  0  0  0  0
   31.6529   36.2986   62.7901 H   0  0  0  0  0  0  0  0  0  0  0  0
   31.4368   34.5831   60.9613 H   0  0  0  0  0  0  0  0  0  0  0  0
   32.0174   34.0756   58.6244 H   0  0  0  0  0  0  0  0  0  0  0  0
   32.3383   38.7075   60.2837 H   0  0  0  0  0  0  0  0  0  0  0  0
   32.8159   38.3884   64.2267 H   0  0  0  0  0  0  0  0  0  0  0  0
   31.8557   38.9802   65.6173 H   0  0  0  0  0  0  0  0  0  0  0  0
  1  2  1  0  0  0  0
  1 24  1  0  0  0  0
  1 25  1  0  0  0  0
  1 26  1  0  0  0  0
  2  3  1  0  0  0  0
  2  4  1  0  0  0  0
  2 27  1  0  0  0  0
  3 28  1  0  0  0  0
  3 29  1  0  0  0  0
  3 30  1  0  0  0  0
  4 22  1  0  0  0  0
  4  5  1  0  0  0  0
  5  6  1  0  0  0  0
  5 31  1  0  0  0  0
  5 32  1  0  0  0  0
  6  7  1  1  0  0  0
  6  8  1  0  0  0  0
  6 21  1  0  0  0  0
  8  9  2  0  0  0  0
  8 10  1  0  0  0  0
 10 11  1  0  0  0  0
 10 33  1  0  0  0  0
 11 20  2  0  0  0  0
 11 12  1  0  0  0  0
 12 13  2  0  0  0  0
 12 34  1  0  0  0  0
 13 14  1  0  0  0  0
 13 35  1  0  0  0  0
 14 15  1  0  0  0  0
 14 16  2  0  0  0  0
 16 17  1  0  0  0  0
 16 20  1  0  0  0  0
 17 18  2  0  0  0  0
 17 19  2  0  0  0  0
 20 36  1  0  0  0  0
 21 22  1  0  0  0  0
 21 37  1  0  0  0  0
 21 38  1  0  0  0  0
 22 23  2  0  0  0  0
M  END
$$$$
