ZINC000000049374      none
 OpenBabel11202420153D

 39 41  0  0  0  0  0  0  0  0999 V2000
   30.7579   39.3181   64.7731 C   0  0  0  0  0  0  0  0  0  0  0  0
   30.5337   37.9304   65.0297 O   0  0  0  0  0  0  0  0  0  0  0  0
   30.7899   37.0657   64.0129 C   0  0  0  0  0  0  0  0  0  0  0  0
   30.5984   35.7026   64.1964 C   0  0  0  0  0  0  0  0  0  0  0  0
   30.8571   34.8181   63.1658 C   0  0  0  0  0  0  0  0  0  0  0  0
   31.3077   35.2842   61.9475 C   0  0  0  0  0  0  0  0  0  0  0  0
   31.5032   36.6529   61.7536 C   0  0  0  0  0  0  0  0  0  0  0  0
   31.9860   37.1556   60.4509 C   0  0  0  0  0  0  0  0  0  0  0  0
   32.2107   38.4111   60.1372 N   0  0  0  0  0  0  0  0  0  0  0  0
   32.6283   38.4800   58.9222 N   0  0  0  0  0  0  0  0  0  0  0  0
   32.6784   37.2713   58.4089 C   0  0  0  0  0  0  0  0  0  0  0  0
   33.1027   36.9207   57.0386 C   0  0  0  0  0  0  0  0  0  0  0  0
   33.5010   37.9231   56.1513 C   0  0  0  0  0  0  0  0  0  0  0  0
   33.8965   37.5939   54.8720 C   0  0  0  0  0  0  0  0  0  0  0  0
   33.8994   36.2683   54.4627 C   0  0  0  0  0  0  0  0  0  0  0  0
   34.2896   35.9492   53.2004 O   0  0  0  0  0  0  0  0  0  0  0  0
   33.2730   35.9126   52.1969 C   0  0  0  0  0  0  0  0  0  0  0  0
   33.5087   35.2629   55.3445 C   0  0  0  0  0  0  0  0  0  0  0  0
   33.5180   33.9638   54.9419 O   0  0  0  0  0  0  0  0  0  0  0  0
   34.7254   33.2286   55.1510 C   0  0  0  0  0  0  0  0  0  0  0  0
   33.1060   35.5861   56.6267 C   0  0  0  0  0  0  0  0  0  0  0  0
   32.2769   36.4095   59.3653 O   0  0  0  0  0  0  0  0  0  0  0  0
   31.2466   37.5438   62.7967 C   0  0  0  0  0  0  0  0  0  0  0  0
   30.5153   39.8963   65.6648 H   0  0  0  0  0  0  0  0  0  0  0  0
   31.8044   39.4749   64.5119 H   0  0  0  0  0  0  0  0  0  0  0  0
   30.1248   39.6418   63.9469 H   0  0  0  0  0  0  0  0  0  0  0  0
   30.2462   35.3319   65.1476 H   0  0  0  0  0  0  0  0  0  0  0  0
   30.7066   33.7591   63.3147 H   0  0  0  0  0  0  0  0  0  0  0  0
   31.5086   34.5905   61.1444 H   0  0  0  0  0  0  0  0  0  0  0  0
   33.4990   38.9558   56.4671 H   0  0  0  0  0  0  0  0  0  0  0  0
   34.2043   38.3699   54.1868 H   0  0  0  0  0  0  0  0  0  0  0  0
   32.5219   35.1705   52.4675 H   0  0  0  0  0  0  0  0  0  0  0  0
   32.8036   36.8931   52.1193 H   0  0  0  0  0  0  0  0  0  0  0  0
   33.7183   35.6459   51.2384 H   0  0  0  0  0  0  0  0  0  0  0  0
   35.5413   33.7085   54.6107 H   0  0  0  0  0  0  0  0  0  0  0  0
   34.9578   33.2068   56.2157 H   0  0  0  0  0  0  0  0  0  0  0  0
   34.5979   32.2094   54.7860 H   0  0  0  0  0  0  0  0  0  0  0  0
   32.7992   34.8081   57.3101 H   0  0  0  0  0  0  0  0  0  0  0  0
   31.4002   38.6032   62.6543 H   0  0  0  0  0  0  0  0  0  0  0  0
  1  2  1  0  0  0  0
  1 24  1  0  0  0  0
  1 25  1  0  0  0  0
  1 26  1  0  0  0  0
  2  3  1  0  0  0  0
  3 23  2  0  0  0  0
  3  4  1  0  0  0  0
  4  5  2  0  0  0  0
  4 27  1  0  0  0  0
  5  6  1  0  0  0  0
  5 28  1  0  0  0  0
  6  7  2  0  0  0  0
  6 29  1  0  0  0  0
  7  8  1  0  0  0  0
  7 23  1  0  0  0  0
  8 22  1  0  0  0  0
  8  9  2  0  0  0  0
  9 10  1  0  0  0  0
 10 11  2  0  0  0  0
 11 12  1  0  0  0  0
 11 22  1  0  0  0  0
 12 21  2  0  0  0  0
 12 13  1  0  0  0  0
 13 14  2  0  0  0  0
 13 30  1  0  0  0  0
 14 15  1  0  0  0  0
 14 31  1  0  0  0  0
 15 16  1  0  0  0  0
 15 18  2  0  0  0  0
 16 17  1  0  0  0  0
 17 32  1  0  0  0  0
 17 33  1  0  0  0  0
 17 34  1  0  0  0  0
 18 19  1  0  0  0  0
 18 21  1  0  0  0  0
 19 20  1  0  0  0  0
 20 35  1  0  0  0  0
 20 36  1  0  0  0  0
 20 37  1  0  0  0  0
 21 38  1  0  0  0  0
 23 39  1  0  0  0  0
M  END
$$$$
