ZINC000000033695      none
 OpenBabel11202420153D

 26 27  0  0  0  0  0  0  0  0999 V2000
   31.7210   37.9608   61.8413 C   0  0  0  0  0  0  0  0  0  0  0  0
   32.3724   37.3450   60.6992 O   0  0  0  0  0  0  0  0  0  0  0  0
   31.8539   37.6094   59.4827 C   0  0  0  0  0  0  0  0  0  0  0  0
   30.8835   38.3349   59.3800 O   0  0  0  0  0  0  0  0  0  0  0  0
   32.4605   37.0217   58.2834 C   0  0  0  0  0  0  0  0  0  0  0  0
   32.5733   35.6724   58.0751 C   0  0  0  0  0  0  0  0  0  0  0  0
   32.1319   34.6948   58.9628 N   0  0  0  0  0  0  0  0  0  0  0  0
   31.0985   34.7798   59.8308 C   0  0  0  0  0  0  0  0  0  0  0  0
   31.0322   33.6397   60.4672 N   0  0  0  0  0  0  0  0  0  0  0  0
   31.9568   32.8433   60.0674 N   0  0  0  0  0  0  0  0  0  0  0  0
   32.6688   33.4093   59.1533 N   0  0  0  0  0  0  0  0  0  0  0  0
   33.3249   35.3545   56.5788 S   0  0  0  0  0  0  0  0  0  0  0  0
   33.5051   37.0623   56.2186 C   0  0  0  0  0  0  0  0  0  0  0  0
   34.1386   37.6108   54.9661 C   0  0  0  0  0  0  0  0  0  0  0  0
   33.0081   37.8048   57.1992 C   0  0  0  0  0  0  0  0  0  0  0  0
   33.0135   39.3117   57.1838 C   0  0  0  0  0  0  0  0  0  0  0  0
   31.7548   39.0453   61.7379 H   0  0  0  0  0  0  0  0  0  0  0  0
   30.6826   37.6325   61.8879 H   0  0  0  0  0  0  0  0  0  0  0  0
   32.2363   37.6668   62.7557 H   0  0  0  0  0  0  0  0  0  0  0  0
   30.4478   35.6302   59.9706 H   0  0  0  0  0  0  0  0  0  0  0  0
   35.2082   37.7439   55.1282 H   0  0  0  0  0  0  0  0  0  0  0  0
   33.9798   36.9138   54.1434 H   0  0  0  0  0  0  0  0  0  0  0  0
   33.6860   38.5717   54.7209 H   0  0  0  0  0  0  0  0  0  0  0  0
   33.9317   39.6764   57.6441 H   0  0  0  0  0  0  0  0  0  0  0  0
   32.9583   39.6648   56.1540 H   0  0  0  0  0  0  0  0  0  0  0  0
   32.1544   39.6838   57.7420 H   0  0  0  0  0  0  0  0  0  0  0  0
  1  2  1  0  0  0  0
  1 17  1  0  0  0  0
  1 18  1  0  0  0  0
  1 19  1  0  0  0  0
  2  3  1  0  0  0  0
  3  4  2  0  0  0  0
  3  5  1  0  0  0  0
  5 15  1  0  0  0  0
  5  6  2  0  0  0  0
  6  7  1  0  0  0  0
  6 12  1  0  0  0  0
  7 11  1  0  0  0  0
  7  8  1  0  0  0  0
  8  9  2  0  0  0  0
  8 20  1  0  0  0  0
  9 10  1  0  0  0  0
 10 11  2  0  0  0  0
 12 13  1  0  0  0  0
 13 14  1  0  0  0  0
 13 15  2  0  0  0  0
 14 21  1  0  0  0  0
 14 22  1  0  0  0  0
 14 23  1  0  0  0  0
 15 16  1  0  0  0  0
 16 24  1  0  0  0  0
 16 25  1  0  0  0  0
 16 26  1  0  0  0  0
M  END
$$$$
