ZINC000000051147      none
 OpenBabel11202420153D

 28 30  0  0  0  0  0  0  0  0999 V2000
   27.3019   32.0170   64.4896 C   0  0  0  0  0  0  0  0  0  0  0  0
   28.8131   32.4875   65.3760 S   0  0  0  0  0  0  0  0  0  0  0  0
   29.4988   33.7455   64.3504 C   0  0  0  0  0  0  0  0  0  0  0  0
   29.2603   35.0340   64.4320 N   0  0  0  0  0  0  0  0  0  0  0  0
   29.9267   35.6627   63.5287 N   0  0  0  0  0  0  0  0  0  0  0  0
   30.6329   34.8142   62.8220 C   0  0  0  0  0  0  0  0  0  0  0  0
   31.5158   34.6450   61.7758 N   0  0  0  0  0  0  0  0  0  0  0  0
   32.0477   35.6627   60.9730 N   0  0  0  0  0  0  0  0  0  0  0  0
   31.8357   35.6569   59.6919 C   0  0  0  0  0  0  0  0  0  0  0  0
   32.3952   36.7277   58.8474 C   0  0  0  0  0  0  0  0  0  0  0  0
   32.7363   36.4665   57.5178 C   0  0  0  0  0  0  0  0  0  0  0  0
   33.2589   37.4722   56.7327 C   0  0  0  0  0  0  0  0  0  0  0  0
   33.4457   38.7404   57.2599 C   0  0  0  0  0  0  0  0  0  0  0  0
   33.9578   39.7221   56.4856 F   0  0  0  0  0  0  0  0  0  0  0  0
   33.1089   39.0059   58.5780 C   0  0  0  0  0  0  0  0  0  0  0  0
   32.5863   38.0081   59.3732 C   0  0  0  0  0  0  0  0  0  0  0  0
   31.7858   33.3044   61.6642 C   0  0  0  0  0  0  0  0  0  0  0  0
   31.1224   32.6550   62.5676 N   0  0  0  0  0  0  0  0  0  0  0  0
   30.3769   33.5631   63.3213 N   0  0  0  0  0  0  0  0  0  0  0  0
   27.5622   31.6519   63.4961 H   0  0  0  0  0  0  0  0  0  0  0  0
   26.7865   31.2313   65.0419 H   0  0  0  0  0  0  0  0  0  0  0  0
   26.6492   32.8852   64.3983 H   0  0  0  0  0  0  0  0  0  0  0  0
   31.2494   34.8675   59.2452 H   0  0  0  0  0  0  0  0  0  0  0  0
   32.5867   35.4799   57.1046 H   0  0  0  0  0  0  0  0  0  0  0  0
   33.5229   37.2716   55.7049 H   0  0  0  0  0  0  0  0  0  0  0  0
   33.2563   39.9961   58.9830 H   0  0  0  0  0  0  0  0  0  0  0  0
   32.3250   38.2159   60.4002 H   0  0  0  0  0  0  0  0  0  0  0  0
   32.4482   32.8599   60.9364 H   0  0  0  0  0  0  0  0  0  0  0  0
  1  2  1  0  0  0  0
  1 20  1  0  0  0  0
  1 21  1  0  0  0  0
  1 22  1  0  0  0  0
  2  3  1  0  0  0  0
  3 19  1  0  0  0  0
  3  4  2  0  0  0  0
  4  5  1  0  0  0  0
  5  6  2  0  0  0  0
  6 19  1  0  0  0  0
  6  7  1  0  0  0  0
  7  8  1  0  0  0  0
  7 17  1  0  0  0  0
  8  9  2  0  0  0  0
  9 10  1  0  0  0  0
  9 23  1  0  0  0  0
 10 16  2  0  0  0  0
 10 11  1  0  0  0  0
 11 12  2  0  0  0  0
 11 24  1  0  0  0  0
 12 13  1  0  0  0  0
 12 25  1  0  0  0  0
 13 14  1  0  0  0  0
 13 15  2  0  0  0  0
 15 16  1  0  0  0  0
 15 26  1  0  0  0  0
 16 27  1  0  0  0  0
 17 18  2  0  0  0  0
 17 28  1  0  0  0  0
 18 19  1  0  0  0  0
M  END
$$$$
