ZINC000000054209      none
 OpenBabel11202420153D

 36 39  0  0  1  0  0  0  0  0999 V2000
   27.5345   40.2748   65.8743 N   0  0  0  0  0  0  0  0  0  0  0  0
   28.4289   39.6505   65.5569 C   0  0  0  0  0  0  0  0  0  0  0  0
   29.5564   38.8634   65.1567 C   0  0  0  0  0  0  0  0  0  0  0  0
   29.8624   38.7969   63.8440 C   0  0  0  0  0  0  0  0  0  0  0  0
   29.0651   39.4882   62.9662 N   0  0  0  0  0  0  0  0  0  0  0  0
   30.8965   38.0983   63.3355 O   0  0  0  0  0  0  0  0  0  0  0  0
   31.8396   37.6491   64.2075 C   0  0  0  0  0  0  0  0  0  0  0  0
   33.0269   37.1666   63.9731 N   0  0  0  0  0  0  0  0  0  0  0  0
   33.6251   36.8415   65.2006 N   0  0  0  0  0  0  0  0  0  0  0  0
   34.5101   36.4636   65.3221 H   0  0  0  0  0  0  0  0  0  0  0  0
   32.7394   37.1514   66.1942 C   0  0  0  0  0  0  0  0  0  0  0  0
   32.9529   36.9740   67.6472 C   0  0  0  0  0  0  0  0  0  0  0  0
   32.5948   35.7816   68.2865 C   0  0  0  0  0  0  0  0  0  0  0  0
   32.8120   35.6589   69.6429 C   0  0  0  0  0  0  0  0  0  0  0  0
   33.3442   36.6474   70.3362 N   0  0  0  0  0  0  0  0  0  0  0  0
   33.7008   37.7857   69.7719 C   0  0  0  0  0  0  0  0  0  0  0  0
   33.5191   37.9937   68.4206 C   0  0  0  0  0  0  0  0  0  0  0  0
   31.6268   37.6462   65.5997 C   0  0  0  0  0  0  0  0  0  0  0  0
   30.3481   38.1468   66.2212 C   0  0  2  0  0  0  0  0  0  0  0  0
   30.5754   38.8341   67.0361 H   0  0  0  0  0  0  0  0  0  0  0  0
   29.5534   36.9794   66.7472 C   0  0  0  0  0  0  0  0  0  0  0  0
   29.1517   35.9561   65.9023 C   0  0  0  0  0  0  0  0  0  0  0  0
   28.4284   34.8990   66.4214 C   0  0  0  0  0  0  0  0  0  0  0  0
   28.1114   34.8623   67.7009 N   0  0  0  0  0  0  0  0  0  0  0  0
   28.4718   35.8204   68.5323 C   0  0  0  0  0  0  0  0  0  0  0  0
   29.2015   36.9059   68.0863 C   0  0  0  0  0  0  0  0  0  0  0  0
   29.2550   39.4630   62.0155 H   0  0  0  0  0  0  0  0  0  0  0  0
   28.3116   40.0020   63.2969 H   0  0  0  0  0  0  0  0  0  0  0  0
   32.1553   34.9698   67.7260 H   0  0  0  0  0  0  0  0  0  0  0  0
   32.5388   34.7427   70.1454 H   0  0  0  0  0  0  0  0  0  0  0  0
   34.1365   38.5668   70.3772 H   0  0  0  0  0  0  0  0  0  0  0  0
   33.8097   38.9293   67.9662 H   0  0  0  0  0  0  0  0  0  0  0  0
   29.4043   35.9827   64.8525 H   0  0  0  0  0  0  0  0  0  0  0  0
   28.1153   34.0958   65.7707 H   0  0  0  0  0  0  0  0  0  0  0  0
   28.1937   35.7557   69.5738 H   0  0  0  0  0  0  0  0  0  0  0  0
   29.4943   37.6872   68.7722 H   0  0  0  0  0  0  0  0  0  0  0  0
  1  2  3  0  0  0  0
  2  3  1  0  0  0  0
  3 19  1  0  0  0  0
  3  4  2  0  0  0  0
  4  5  1  0  0  0  0
  4  6  1  0  0  0  0
  5 27  1  0  0  0  0
  5 28  1  0  0  0  0
  6  7  1  0  0  0  0
  7 18  1  0  0  0  0
  7  8  2  0  0  0  0
  8  9  1  0  0  0  0
  9 10  1  0  0  0  0
  9 11  1  0  0  0  0
 11 12  1  0  0  0  0
 11 18  2  0  0  0  0
 12 17  2  0  0  0  0
 12 13  1  0  0  0  0
 13 14  2  0  0  0  0
 13 29  1  0  0  0  0
 14 15  1  0  0  0  0
 14 30  1  0  0  0  0
 15 16  2  0  0  0  0
 16 17  1  0  0  0  0
 16 31  1  0  0  0  0
 17 32  1  0  0  0  0
 18 19  1  0  0  0  0
 19 20  1  1  0  0  0
 19 21  1  0  0  0  0
 21 26  2  0  0  0  0
 21 22  1  0  0  0  0
 22 23  2  0  0  0  0
 22 33  1  0  0  0  0
 23 24  1  0  0  0  0
 23 34  1  0  0  0  0
 24 25  2  0  0  0  0
 25 26  1  0  0  0  0
 25 35  1  0  0  0  0
 26 36  1  0  0  0  0
M  END
$$$$
