ZINC000000051521      none
 OpenBabel11202420153D

 34 36  0  0  0  0  0  0  0  0999 V2000
   34.7364   33.6402   55.9911 C   0  0  0  0  0  0  0  0  0  0  0  0
   34.0295   33.8440   57.0750 C   0  0  0  0  0  0  0  0  0  0  0  0
   32.6731   34.4938   56.9789 C   0  0  0  0  0  0  0  0  0  0  0  0
   32.6687   35.7325   57.7611 N   0  0  0  0  0  0  0  0  0  0  0  0
   33.0099   36.9812   57.2667 C   0  0  0  0  0  0  0  0  0  0  0  0
   33.4197   37.4098   56.0085 C   0  0  0  0  0  0  0  0  0  0  0  0
   33.7005   38.7416   55.7903 C   0  0  0  0  0  0  0  0  0  0  0  0
   33.5731   39.6663   56.8153 C   0  0  0  0  0  0  0  0  0  0  0  0
   33.1741   39.2601   58.0705 C   0  0  0  0  0  0  0  0  0  0  0  0
   32.8870   37.9173   58.3046 C   0  0  0  0  0  0  0  0  0  0  0  0
   32.4426   37.1661   59.4913 C   0  0  0  0  0  0  0  0  0  0  0  0
   32.1606   37.4980   60.7427 N   0  0  0  0  0  0  0  0  0  0  0  0
   31.7840   36.5948   61.5816 N   0  0  0  0  0  0  0  0  0  0  0  0
   31.6675   35.3195   61.2250 C   0  0  0  0  0  0  0  0  0  0  0  0
   31.1478   34.1326   62.4191 S   0  0  0  0  0  0  0  0  0  0  0  0
   30.1046   35.1768   63.4668 C   0  0  0  0  0  0  0  0  0  0  0  0
   29.5340   34.3502   64.5902 C   0  0  0  0  0  0  0  0  0  0  0  0
   28.7560   33.2846   64.3151 N   0  0  0  0  0  0  0  0  0  0  0  0
   29.7749   34.6437   65.7421 O   0  0  0  0  0  0  0  0  0  0  0  0
   31.9344   34.9232   59.9877 N   0  0  0  0  0  0  0  0  0  0  0  0
   32.3265   35.8202   59.0878 C   0  0  0  0  0  0  0  0  0  0  0  0
   34.3471   33.9379   55.0286 H   0  0  0  0  0  0  0  0  0  0  0  0
   35.7083   33.1745   56.0598 H   0  0  0  0  0  0  0  0  0  0  0  0
   34.4187   33.5461   58.0374 H   0  0  0  0  0  0  0  0  0  0  0  0
   31.9162   33.8143   57.3702 H   0  0  0  0  0  0  0  0  0  0  0  0
   32.4526   34.7218   55.9360 H   0  0  0  0  0  0  0  0  0  0  0  0
   33.5175   36.6985   55.2016 H   0  0  0  0  0  0  0  0  0  0  0  0
   34.0182   39.0683   54.8111 H   0  0  0  0  0  0  0  0  0  0  0  0
   33.7914   40.7078   56.6309 H   0  0  0  0  0  0  0  0  0  0  0  0
   33.0798   39.9814   58.8689 H   0  0  0  0  0  0  0  0  0  0  0  0
   30.7026   35.9887   63.8806 H   0  0  0  0  0  0  0  0  0  0  0  0
   29.2913   35.5914   62.8713 H   0  0  0  0  0  0  0  0  0  0  0  0
   28.5633   33.0498   63.3938 H   0  0  0  0  0  0  0  0  0  0  0  0
   28.3887   32.7524   65.0381 H   0  0  0  0  0  0  0  0  0  0  0  0
  1  2  2  0  0  0  0
  1 22  1  0  0  0  0
  1 23  1  0  0  0  0
  2  3  1  0  0  0  0
  2 24  1  0  0  0  0
  3  4  1  0  0  0  0
  3 25  1  0  0  0  0
  3 26  1  0  0  0  0
  4 21  1  0  0  0  0
  4  5  1  0  0  0  0
  5 10  2  0  0  0  0
  5  6  1  0  0  0  0
  6  7  2  0  0  0  0
  6 27  1  0  0  0  0
  7  8  1  0  0  0  0
  7 28  1  0  0  0  0
  8  9  2  0  0  0  0
  8 29  1  0  0  0  0
  9 10  1  0  0  0  0
  9 30  1  0  0  0  0
 10 11  1  0  0  0  0
 11 21  2  0  0  0  0
 11 12  1  0  0  0  0
 12 13  2  0  0  0  0
 13 14  1  0  0  0  0
 14 15  1  0  0  0  0
 14 20  2  0  0  0  0
 15 16  1  0  0  0  0
 16 17  1  0  0  0  0
 16 31  1  0  0  0  0
 16 32  1  0  0  0  0
 17 18  1  0  0  0  0
 17 19  2  0  0  0  0
 18 33  1  0  0  0  0
 18 34  1  0  0  0  0
 20 21  1  0  0  0  0
M  END
$$$$
