ZINC000000034769      none
 OpenBabel11202420153D

 24 26  0  0  0  0  0  0  0  0999 V2000
   36.2401   39.4387   50.5784 F   0  0  0  0  0  0  0  0  0  0  0  0
   35.8965   40.3781   51.5564 C   0  0  0  0  0  0  0  0  0  0  0  0
   34.9407   41.2599   51.0408 F   0  0  0  0  0  0  0  0  0  0  0  0
   37.0364   41.0953   51.9351 F   0  0  0  0  0  0  0  0  0  0  0  0
   35.3281   39.6675   52.7576 C   0  0  0  0  0  0  0  0  0  0  0  0
   34.9209   40.2434   53.8196 N   0  0  0  0  0  0  0  0  0  0  0  0
   34.4275   39.4250   54.8267 N   0  0  0  0  0  0  0  0  0  0  0  0
   33.8880   39.5210   56.0977 C   0  0  0  0  0  0  0  0  0  0  0  0
   33.6178   38.2577   56.5115 C   0  0  0  0  0  0  0  0  0  0  0  0
   33.0300   37.8756   57.8188 C   0  0  0  0  0  0  0  0  0  0  0  0
   32.7977   36.5340   58.1160 C   0  0  0  0  0  0  0  0  0  0  0  0
   32.2458   36.1847   59.3317 C   0  0  0  0  0  0  0  0  0  0  0  0
   31.9228   37.1635   60.2543 C   0  0  0  0  0  0  0  0  0  0  0  0
   32.1508   38.4968   59.9645 C   0  0  0  0  0  0  0  0  0  0  0  0
   32.7026   38.8575   58.7523 C   0  0  0  0  0  0  0  0  0  0  0  0
   33.9712   37.4124   55.5260 N   0  0  0  0  0  0  0  0  0  0  0  0
   34.4575   38.1096   54.5134 C   0  0  0  0  0  0  0  0  0  0  0  0
   35.1325   37.9263   52.8952 S   0  0  0  0  0  0  0  0  0  0  0  0
   33.7165   40.4299   56.6555 H   0  0  0  0  0  0  0  0  0  0  0  0
   33.0490   35.7690   57.3962 H   0  0  0  0  0  0  0  0  0  0  0  0
   32.0659   35.1454   59.5633 H   0  0  0  0  0  0  0  0  0  0  0  0
   31.4907   36.8857   61.2044 H   0  0  0  0  0  0  0  0  0  0  0  0
   31.8966   39.2567   60.6886 H   0  0  0  0  0  0  0  0  0  0  0  0
   32.8809   39.8987   58.5273 H   0  0  0  0  0  0  0  0  0  0  0  0
  1  2  1  0  0  0  0
  2  3  1  0  0  0  0
  2  4  1  0  0  0  0
  2  5  1  0  0  0  0
  5 18  1  0  0  0  0
  5  6  2  0  0  0  0
  6  7  1  0  0  0  0
  7 17  1  0  0  0  0
  7  8  1  0  0  0  0
  8  9  2  0  0  0  0
  8 19  1  0  0  0  0
  9 10  1  0  0  0  0
  9 16  1  0  0  0  0
 10 15  2  0  0  0  0
 10 11  1  0  0  0  0
 11 12  2  0  0  0  0
 11 20  1  0  0  0  0
 12 13  1  0  0  0  0
 12 21  1  0  0  0  0
 13 14  2  0  0  0  0
 13 22  1  0  0  0  0
 14 15  1  0  0  0  0
 14 23  1  0  0  0  0
 15 24  1  0  0  0  0
 16 17  2  0  0  0  0
 17 18  1  0  0  0  0
M  END
$$$$
