ZINC000000039782      none
 OpenBabel11202420153D

 22 23  0  0  0  0  0  0  0  0999 V2000
   30.7773   35.4607   63.3277 N   0  0  0  0  0  0  0  0  0  0  0  0
   30.9503   36.2226   62.1817 C   0  0  0  0  0  0  0  0  0  0  0  0
   30.0392   36.4865   61.2893 N   0  0  0  0  0  0  0  0  0  0  0  0
   30.3742   37.1997   60.3048 N   0  0  0  0  0  0  0  0  0  0  0  0
   31.5960   37.6196   60.2480 C   0  0  0  0  0  0  0  0  0  0  0  0
   32.1898   38.4771   59.1603 C   0  0  0  0  0  0  0  0  0  0  0  0
   32.7557   37.5947   58.0775 C   0  0  0  0  0  0  0  0  0  0  0  0
   32.6738   36.2195   58.1937 C   0  0  0  0  0  0  0  0  0  0  0  0
   33.1977   35.4096   57.2041 C   0  0  0  0  0  0  0  0  0  0  0  0
   33.7941   35.9752   56.0903 C   0  0  0  0  0  0  0  0  0  0  0  0
   34.4465   34.9574   54.8444 Cl  0  0  0  0  0  0  0  0  0  0  0  0
   33.8714   37.3506   55.9712 C   0  0  0  0  0  0  0  0  0  0  0  0
   33.3519   38.1610   56.9652 C   0  0  0  0  0  0  0  0  0  0  0  0
   33.4477   39.8879   56.8159 Cl  0  0  0  0  0  0  0  0  0  0  0  0
   32.4468   37.0039   61.6664 S   0  0  0  0  0  0  0  0  0  0  0  0
   29.9120   35.0680   63.5230 H   0  0  0  0  0  0  0  0  0  0  0  0
   31.5214   35.3206   63.9339 H   0  0  0  0  0  0  0  0  0  0  0  0
   32.9845   39.0949   59.5780 H   0  0  0  0  0  0  0  0  0  0  0  0
   31.4150   39.1176   58.7389 H   0  0  0  0  0  0  0  0  0  0  0  0
   32.2043   35.7780   59.0602 H   0  0  0  0  0  0  0  0  0  0  0  0
   33.1374   34.3353   57.2973 H   0  0  0  0  0  0  0  0  0  0  0  0
   34.3372   37.7923   55.1028 H   0  0  0  0  0  0  0  0  0  0  0  0
  1  2  1  0  0  0  0
  1 16  1  0  0  0  0
  1 17  1  0  0  0  0
  2 15  1  0  0  0  0
  2  3  2  0  0  0  0
  3  4  1  0  0  0  0
  4  5  2  0  0  0  0
  5  6  1  0  0  0  0
  5 15  1  0  0  0  0
  6  7  1  0  0  0  0
  6 18  1  0  0  0  0
  6 19  1  0  0  0  0
  7 13  2  0  0  0  0
  7  8  1  0  0  0  0
  8  9  2  0  0  0  0
  8 20  1  0  0  0  0
  9 10  1  0  0  0  0
  9 21  1  0  0  0  0
 10 11  1  0  0  0  0
 10 12  2  0  0  0  0
 12 13  1  0  0  0  0
 12 22  1  0  0  0  0
 13 14  1  0  0  0  0
M  END
$$$$
