ZINC000000038103      none
 OpenBabel11202420153D

 26 28  0  0  0  0  0  0  0  0999 V2000
   30.6365   38.0811   61.6921 C   0  0  0  0  0  0  0  0  0  0  0  0
   31.3507   37.6363   60.4418 C   0  0  0  0  0  0  0  0  0  0  0  0
   31.3721   36.3726   60.1471 N   0  0  0  0  0  0  0  0  0  0  0  0
   31.9999   35.9138   59.0428 C   0  0  0  0  0  0  0  0  0  0  0  0
   32.1856   34.2815   58.4137 S   0  0  0  0  0  0  0  0  0  0  0  0
   33.1037   34.8648   57.0360 C   0  0  0  0  0  0  0  0  0  0  0  0
   33.6548   34.0055   55.9669 C   0  0  0  0  0  0  0  0  0  0  0  0
   33.2540   34.1904   54.6426 C   0  0  0  0  0  0  0  0  0  0  0  0
   33.7757   33.3880   53.6490 C   0  0  0  0  0  0  0  0  0  0  0  0
   34.6870   32.3964   53.9635 C   0  0  0  0  0  0  0  0  0  0  0  0
   35.0839   32.2033   55.2755 C   0  0  0  0  0  0  0  0  0  0  0  0
   34.5738   33.0020   56.2780 C   0  0  0  0  0  0  0  0  0  0  0  0
   33.2353   36.1930   57.0878 C   0  0  0  0  0  0  0  0  0  0  0  0
   32.6350   36.8158   58.1896 C   0  0  0  0  0  0  0  0  0  0  0  0
   32.5867   38.2026   58.5446 C   0  0  0  0  0  0  0  0  0  0  0  0
   33.1206   39.0424   57.8428 O   0  0  0  0  0  0  0  0  0  0  0  0
   31.9390   38.5589   59.6688 O   0  0  0  0  0  0  0  0  0  0  0  0
   30.7108   39.1645   61.7871 H   0  0  0  0  0  0  0  0  0  0  0  0
   29.5871   37.7927   61.6331 H   0  0  0  0  0  0  0  0  0  0  0  0
   31.0951   37.6080   62.5603 H   0  0  0  0  0  0  0  0  0  0  0  0
   32.5402   34.9623   54.3959 H   0  0  0  0  0  0  0  0  0  0  0  0
   33.4699   33.5328   52.6235 H   0  0  0  0  0  0  0  0  0  0  0  0
   35.0885   31.7668   53.1831 H   0  0  0  0  0  0  0  0  0  0  0  0
   35.7952   31.4267   55.5148 H   0  0  0  0  0  0  0  0  0  0  0  0
   34.8850   32.8514   57.3011 H   0  0  0  0  0  0  0  0  0  0  0  0
   33.7682   36.7493   56.3310 H   0  0  0  0  0  0  0  0  0  0  0  0
  1  2  1  0  0  0  0
  1 18  1  0  0  0  0
  1 19  1  0  0  0  0
  1 20  1  0  0  0  0
  2 17  1  0  0  0  0
  2  3  2  0  0  0  0
  3  4  1  0  0  0  0
  4 14  2  0  0  0  0
  4  5  1  0  0  0  0
  5  6  1  0  0  0  0
  6  7  1  0  0  0  0
  6 13  2  0  0  0  0
  7 12  2  0  0  0  0
  7  8  1  0  0  0  0
  8  9  2  0  0  0  0
  8 21  1  0  0  0  0
  9 10  1  0  0  0  0
  9 22  1  0  0  0  0
 10 11  2  0  0  0  0
 10 23  1  0  0  0  0
 11 12  1  0  0  0  0
 11 24  1  0  0  0  0
 12 25  1  0  0  0  0
 13 14  1  0  0  0  0
 13 26  1  0  0  0  0
 14 15  1  0  0  0  0
 15 16  2  0  0  0  0
 15 17  1  0  0  0  0
M  END
$$$$
