ZINC000000029500      none
 OpenBabel11202420163D

 20 20  0  0  0  0  0  0  0  0999 V2000
   32.2323   36.6360   61.7846 C   0  0  0  0  0  0  0  0  0  0  0  0
   31.2406   36.2464   60.3165 S   0  0  0  0  0  0  0  0  0  0  0  0
   30.5145   37.3900   59.8873 O   0  0  0  0  0  0  0  0  0  0  0  0
   30.6010   34.9864   60.4668 O   0  0  0  0  0  0  0  0  0  0  0  0
   32.3563   35.9977   59.1182 N   0  0  0  0  0  0  0  0  0  0  0  0
   32.7847   37.0685   58.3292 C   0  0  0  0  0  0  0  0  0  0  0  0
   32.8162   38.3530   58.8569 C   0  0  0  0  0  0  0  0  0  0  0  0
   33.2449   39.4089   58.0766 C   0  0  0  0  0  0  0  0  0  0  0  0
   33.6322   39.1913   56.7671 C   0  0  0  0  0  0  0  0  0  0  0  0
   33.5975   37.9142   56.2354 C   0  0  0  0  0  0  0  0  0  0  0  0
   34.0847   37.6458   54.5908 Cl  0  0  0  0  0  0  0  0  0  0  0  0
   33.1746   36.8515   57.0132 C   0  0  0  0  0  0  0  0  0  0  0  0
   33.1316   35.2492   56.3467 Cl  0  0  0  0  0  0  0  0  0  0  0  0
   31.5712   36.8165   62.6321 H   0  0  0  0  0  0  0  0  0  0  0  0
   32.8919   35.7980   62.0103 H   0  0  0  0  0  0  0  0  0  0  0  0
   32.8298   37.5273   61.5934 H   0  0  0  0  0  0  0  0  0  0  0  0
   32.7125   35.1087   58.9641 H   0  0  0  0  0  0  0  0  0  0  0  0
   32.5094   38.5253   59.8780 H   0  0  0  0  0  0  0  0  0  0  0  0
   33.2732   40.4070   58.4884 H   0  0  0  0  0  0  0  0  0  0  0  0
   33.9626   40.0198   56.1582 H   0  0  0  0  0  0  0  0  0  0  0  0
  1  2  1  0  0  0  0
  1 14  1  0  0  0  0
  1 15  1  0  0  0  0
  1 16  1  0  0  0  0
  2  3  2  0  0  0  0
  2  4  2  0  0  0  0
  2  5  1  0  0  0  0
  5  6  1  0  0  0  0
  5 17  1  0  0  0  0
  6 12  2  0  0  0  0
  6  7  1  0  0  0  0
  7  8  2  0  0  0  0
  7 18  1  0  0  0  0
  8  9  1  0  0  0  0
  8 19  1  0  0  0  0
  9 10  2  0  0  0  0
  9 20  1  0  0  0  0
 10 11  1  0  0  0  0
 10 12  1  0  0  0  0
 12 13  1  0  0  0  0
M  END
$$$$
