ZINC000000027165      none
 OpenBabel11202420153D

 42 44  0  0  0  0  0  0  0  0999 V2000
   30.0442   39.6868   66.6474 O   0  0  0  0  0  0  0  0  0  0  0  0
   30.1493   38.5000   66.4054 C   0  0  0  0  0  0  0  0  0  0  0  0
   30.4866   37.5529   67.4873 C   0  0  0  0  0  0  0  0  0  0  0  0
   29.6489   37.4287   68.5978 C   0  0  0  0  0  0  0  0  0  0  0  0
   29.9696   36.5430   69.6044 C   0  0  0  0  0  0  0  0  0  0  0  0
   31.1188   35.7766   69.5182 C   0  0  0  0  0  0  0  0  0  0  0  0
   31.9516   35.8878   68.4203 C   0  0  0  0  0  0  0  0  0  0  0  0
   31.6463   36.7761   67.4051 C   0  0  0  0  0  0  0  0  0  0  0  0
   32.4631   36.8891   66.3348 F   0  0  0  0  0  0  0  0  0  0  0  0
   29.9580   38.0487   65.1500 N   0  0  0  0  0  0  0  0  0  0  0  0
   30.0875   36.6182   64.8409 C   0  0  0  0  0  0  0  0  0  0  0  0
   31.0750   36.4457   63.6882 C   0  0  0  0  0  0  0  0  0  0  0  0
   30.6294   37.3071   62.5044 C   0  0  0  0  0  0  0  0  0  0  0  0
   31.6000   37.1115   61.3378 C   0  0  0  0  0  0  0  0  0  0  0  0
   31.6088   35.6609   60.9296 C   0  0  0  0  0  0  0  0  0  0  0  0
   32.5047   34.7843   61.5128 C   0  0  0  0  0  0  0  0  0  0  0  0
   32.5096   33.4527   61.1417 C   0  0  0  0  0  0  0  0  0  0  0  0
   31.6258   32.9998   60.1801 C   0  0  0  0  0  0  0  0  0  0  0  0
   30.7335   33.8775   59.5933 C   0  0  0  0  0  0  0  0  0  0  0  0
   30.7250   35.2080   59.9681 C   0  0  0  0  0  0  0  0  0  0  0  0
   30.6201   38.7805   62.9183 C   0  0  0  0  0  0  0  0  0  0  0  0
   29.6219   38.9787   64.0633 C   0  0  0  0  0  0  0  0  0  0  0  0
   28.7512   38.0251   68.6677 H   0  0  0  0  0  0  0  0  0  0  0  0
   29.3218   36.4468   70.4632 H   0  0  0  0  0  0  0  0  0  0  0  0
   31.3649   35.0850   70.3105 H   0  0  0  0  0  0  0  0  0  0  0  0
   32.8445   35.2835   68.3572 H   0  0  0  0  0  0  0  0  0  0  0  0
   30.4557   36.0866   65.7183 H   0  0  0  0  0  0  0  0  0  0  0  0
   29.1165   36.2179   64.5493 H   0  0  0  0  0  0  0  0  0  0  0  0
   31.1040   35.3988   63.3859 H   0  0  0  0  0  0  0  0  0  0  0  0
   32.0674   36.7586   64.0127 H   0  0  0  0  0  0  0  0  0  0  0  0
   29.6269   37.0101   62.1964 H   0  0  0  0  0  0  0  0  0  0  0  0
   31.2822   37.7244   60.4942 H   0  0  0  0  0  0  0  0  0  0  0  0
   32.6025   37.4085   61.6456 H   0  0  0  0  0  0  0  0  0  0  0  0
   33.1982   35.1390   62.2607 H   0  0  0  0  0  0  0  0  0  0  0  0
   33.2069   32.7671   61.6000 H   0  0  0  0  0  0  0  0  0  0  0  0
   31.6326   31.9602   59.8871 H   0  0  0  0  0  0  0  0  0  0  0  0
   30.0431   33.5237   58.8417 H   0  0  0  0  0  0  0  0  0  0  0  0
   30.0282   35.8938   59.5092 H   0  0  0  0  0  0  0  0  0  0  0  0
   30.3252   39.3954   62.0680 H   0  0  0  0  0  0  0  0  0  0  0  0
   31.6167   39.0720   63.2499 H   0  0  0  0  0  0  0  0  0  0  0  0
   28.6121   38.7749   63.7071 H   0  0  0  0  0  0  0  0  0  0  0  0
   29.6805   40.0040   64.4286 H   0  0  0  0  0  0  0  0  0  0  0  0
  1  2  2  0  0  0  0
  2  3  1  0  0  0  0
  2 10  1  0  0  0  0
  3  8  2  0  0  0  0
  3  4  1  0  0  0  0
  4  5  2  0  0  0  0
  4 23  1  0  0  0  0
  5  6  1  0  0  0  0
  5 24  1  0  0  0  0
  6  7  2  0  0  0  0
  6 25  1  0  0  0  0
  7  8  1  0  0  0  0
  7 26  1  0  0  0  0
  8  9  1  0  0  0  0
 10 22  1  0  0  0  0
 10 11  1  0  0  0  0
 11 12  1  0  0  0  0
 11 27  1  0  0  0  0
 11 28  1  0  0  0  0
 12 13  1  0  0  0  0
 12 29  1  0  0  0  0
 12 30  1  0  0  0  0
 13 14  1  0  0  0  0
 13 21  1  0  0  0  0
 13 31  1  0  0  0  0
 14 15  1  0  0  0  0
 14 32  1  0  0  0  0
 14 33  1  0  0  0  0
 15 20  2  0  0  0  0
 15 16  1  0  0  0  0
 16 17  2  0  0  0  0
 16 34  1  0  0  0  0
 17 18  1  0  0  0  0
 17 35  1  0  0  0  0
 18 19  2  0  0  0  0
 18 36  1  0  0  0  0
 19 20  1  0  0  0  0
 19 37  1  0  0  0  0
 20 38  1  0  0  0  0
 21 22  1  0  0  0  0
 21 39  1  0  0  0  0
 21 40  1  0  0  0  0
 22 41  1  0  0  0  0
 22 42  1  0  0  0  0
M  END
$$$$
