ZINC000000039498      none
 OpenBabel11202420153D

 17 17  0  0  0  0  0  0  0  0999 V2000
   31.5620   36.9723   63.3266 C   0  0  0  0  0  0  0  0  0  0  0  0
   30.5613   37.7373   62.0214 S   0  0  0  0  0  0  0  0  0  0  0  0
   30.5809   39.1529   62.1431 O   0  0  0  0  0  0  0  0  0  0  0  0
   29.3383   37.0333   61.8533 O   0  0  0  0  0  0  0  0  0  0  0  0
   31.4549   37.4164   60.5371 C   0  0  0  0  0  0  0  0  0  0  0  0
   32.0804   38.4576   59.8780 C   0  0  0  0  0  0  0  0  0  0  0  0
   32.7809   38.1953   58.7104 C   0  0  0  0  0  0  0  0  0  0  0  0
   32.8215   36.8907   58.2439 C   0  0  0  0  0  0  0  0  0  0  0  0
   32.1759   35.8985   58.9602 C   0  0  0  0  0  0  0  0  0  0  0  0
   32.2242   34.2591   58.3909 Cl  0  0  0  0  0  0  0  0  0  0  0  0
   31.5185   36.1855   60.0681 N   0  0  0  0  0  0  0  0  0  0  0  0
   32.5516   37.4290   63.3406 H   0  0  0  0  0  0  0  0  0  0  0  0
   31.0780   37.1239   64.2915 H   0  0  0  0  0  0  0  0  0  0  0  0
   31.6576   35.9039   63.1321 H   0  0  0  0  0  0  0  0  0  0  0  0
   32.0241   39.4634   60.2674 H   0  0  0  0  0  0  0  0  0  0  0  0
   33.2793   38.9896   58.1746 H   0  0  0  0  0  0  0  0  0  0  0  0
   33.3540   36.6510   57.3354 H   0  0  0  0  0  0  0  0  0  0  0  0
  1  2  1  0  0  0  0
  1 12  1  0  0  0  0
  1 13  1  0  0  0  0
  1 14  1  0  0  0  0
  2  3  2  0  0  0  0
  2  4  2  0  0  0  0
  2  5  1  0  0  0  0
  5 11  2  0  0  0  0
  5  6  1  0  0  0  0
  6  7  2  0  0  0  0
  6 15  1  0  0  0  0
  7  8  1  0  0  0  0
  7 16  1  0  0  0  0
  8  9  2  0  0  0  0
  8 17  1  0  0  0  0
  9 10  1  0  0  0  0
  9 11  1  0  0  0  0
M  END
$$$$
