ZINC000000037840      none
 OpenBabel11202420153D

 33 35  0  0  0  0  0  0  0  0999 V2000
   33.9207   37.4422   54.9908 C   0  0  0  0  0  0  0  0  0  0  0  0
   33.5246   37.7254   56.4169 C   0  0  0  0  0  0  0  0  0  0  0  0
   33.8162   38.9528   56.9832 C   0  0  0  0  0  0  0  0  0  0  0  0
   33.4491   39.2179   58.2879 C   0  0  0  0  0  0  0  0  0  0  0  0
   32.7912   38.2478   59.0334 C   0  0  0  0  0  0  0  0  0  0  0  0
   32.4181   38.5127   60.3530 N   0  0  0  0  0  0  0  0  0  0  0  0
   31.7243   37.4884   61.1377 C   0  0  0  0  0  0  0  0  0  0  0  0
   31.4366   38.0218   62.5175 C   0  0  0  0  0  0  0  0  0  0  0  0
   30.2529   38.6920   62.7650 C   0  0  0  0  0  0  0  0  0  0  0  0
   29.9816   39.1777   64.0305 C   0  0  0  0  0  0  0  0  0  0  0  0
   30.9022   39.0050   65.0514 C   0  0  0  0  0  0  0  0  0  0  0  0
   32.0971   38.3350   64.8007 C   0  0  0  0  0  0  0  0  0  0  0  0
   32.3593   37.8451   63.5316 C   0  0  0  0  0  0  0  0  0  0  0  0
   32.8258   38.2963   65.9543 O   0  0  0  0  0  0  0  0  0  0  0  0
   32.2489   39.3026   66.8074 C   0  0  0  0  0  0  0  0  0  0  0  0
   30.8823   39.3860   66.3621 O   0  0  0  0  0  0  0  0  0  0  0  0
   32.5048   37.0138   58.4634 C   0  0  0  0  0  0  0  0  0  0  0  0
   32.8748   36.7554   57.1581 C   0  0  0  0  0  0  0  0  0  0  0  0
   34.9210   37.0095   54.9707 H   0  0  0  0  0  0  0  0  0  0  0  0
   33.2126   36.7409   54.5495 H   0  0  0  0  0  0  0  0  0  0  0  0
   33.9151   38.3713   54.4208 H   0  0  0  0  0  0  0  0  0  0  0  0
   34.3277   39.7066   56.4031 H   0  0  0  0  0  0  0  0  0  0  0  0
   33.6729   40.1784   58.7280 H   0  0  0  0  0  0  0  0  0  0  0  0
   32.6183   39.3748   60.7500 H   0  0  0  0  0  0  0  0  0  0  0  0
   30.7871   37.2271   60.6464 H   0  0  0  0  0  0  0  0  0  0  0  0
   32.3536   36.6017   61.2150 H   0  0  0  0  0  0  0  0  0  0  0  0
   29.5368   38.8324   61.9689 H   0  0  0  0  0  0  0  0  0  0  0  0
   29.0543   39.6968   64.2220 H   0  0  0  0  0  0  0  0  0  0  0  0
   33.2850   37.3251   63.3343 H   0  0  0  0  0  0  0  0  0  0  0  0
   32.7557   40.2577   66.6698 H   0  0  0  0  0  0  0  0  0  0  0  0
   32.2934   38.9913   67.8510 H   0  0  0  0  0  0  0  0  0  0  0  0
   31.9938   36.2573   59.0403 H   0  0  0  0  0  0  0  0  0  0  0  0
   32.6521   35.7964   56.7141 H   0  0  0  0  0  0  0  0  0  0  0  0
  1  2  1  0  0  0  0
  1 19  1  0  0  0  0
  1 20  1  0  0  0  0
  1 21  1  0  0  0  0
  2 18  2  0  0  0  0
  2  3  1  0  0  0  0
  3  4  2  0  0  0  0
  3 22  1  0  0  0  0
  4  5  1  0  0  0  0
  4 23  1  0  0  0  0
  5  6  1  0  0  0  0
  5 17  2  0  0  0  0
  6  7  1  0  0  0  0
  6 24  1  0  0  0  0
  7  8  1  0  0  0  0
  7 25  1  0  0  0  0
  7 26  1  0  0  0  0
  8 13  2  0  0  0  0
  8  9  1  0  0  0  0
  9 10  2  0  0  0  0
  9 27  1  0  0  0  0
 10 11  1  0  0  0  0
 10 28  1  0  0  0  0
 11 16  1  0  0  0  0
 11 12  2  0  0  0  0
 12 13  1  0  0  0  0
 12 14  1  0  0  0  0
 13 29  1  0  0  0  0
 14 15  1  0  0  0  0
 15 16  1  0  0  0  0
 15 30  1  0  0  0  0
 15 31  1  0  0  0  0
 17 18  1  0  0  0  0
 17 32  1  0  0  0  0
 18 33  1  0  0  0  0
M  END
$$$$
