ZINC000000053814      none
 OpenBabel11202420153D

 40 44  0  0  0  0  0  0  0  0999 V2000
   33.0115   35.6513   62.4967 O   0  0  0  0  0  0  0  0  0  0  0  0
   31.8205   35.7824   62.3089 C   0  0  0  0  0  0  0  0  0  0  0  0
   31.1335   34.9770   61.2362 C   0  0  0  0  0  0  0  0  0  0  0  0
   31.7329   35.2845   59.9353 N   0  0  0  0  0  0  0  0  0  0  0  0
   31.9880   34.3703   58.9622 C   0  0  0  0  0  0  0  0  0  0  0  0
   31.7599   33.1767   59.0246 O   0  0  0  0  0  0  0  0  0  0  0  0
   32.5865   35.0758   57.8228 C   0  0  0  0  0  0  0  0  0  0  0  0
   33.0721   34.7951   56.5574 C   0  0  0  0  0  0  0  0  0  0  0  0
   33.5834   35.8253   55.7694 C   0  0  0  0  0  0  0  0  0  0  0  0
   33.6262   37.1313   56.1799 C   0  0  0  0  0  0  0  0  0  0  0  0
   33.1421   37.4586   57.4576 C   0  0  0  0  0  0  0  0  0  0  0  0
   33.1207   38.7446   58.0234 C   0  0  0  0  0  0  0  0  0  0  0  0
   32.6149   38.8939   59.2858 C   0  0  0  0  0  0  0  0  0  0  0  0
   32.1182   37.8320   60.0415 C   0  0  0  0  0  0  0  0  0  0  0  0
   32.1213   36.5520   59.5200 C   0  0  0  0  0  0  0  0  0  0  0  0
   32.6385   36.4153   58.2354 C   0  0  0  0  0  0  0  0  0  0  0  0
   31.1112   36.6485   63.0595 N   0  0  0  0  0  0  0  0  0  0  0  0
   31.7497   37.3972   64.0567 C   0  0  0  0  0  0  0  0  0  0  0  0
   32.8655   36.8831   64.7037 C   0  0  0  0  0  0  0  0  0  0  0  0
   33.4966   37.6205   65.6870 C   0  0  0  0  0  0  0  0  0  0  0  0
   33.0180   38.8745   66.0307 C   0  0  0  0  0  0  0  0  0  0  0  0
   31.8986   39.3928   65.3838 C   0  0  0  0  0  0  0  0  0  0  0  0
   31.2704   38.6554   64.3938 C   0  0  0  0  0  0  0  0  0  0  0  0
   31.6306   40.6287   65.8978 O   0  0  0  0  0  0  0  0  0  0  0  0
   32.3467   40.6899   67.1454 C   0  0  0  0  0  0  0  0  0  0  0  0
   33.4510   39.7866   66.9506 O   0  0  0  0  0  0  0  0  0  0  0  0
   30.0731   35.2284   61.2161 H   0  0  0  0  0  0  0  0  0  0  0  0
   31.2509   33.9143   61.4484 H   0  0  0  0  0  0  0  0  0  0  0  0
   33.0589   33.7820   56.1838 H   0  0  0  0  0  0  0  0  0  0  0  0
   33.9609   35.5824   54.7871 H   0  0  0  0  0  0  0  0  0  0  0  0
   34.0282   37.8968   55.5328 H   0  0  0  0  0  0  0  0  0  0  0  0
   33.4954   39.5957   57.4743 H   0  0  0  0  0  0  0  0  0  0  0  0
   32.5996   39.8833   59.7188 H   0  0  0  0  0  0  0  0  0  0  0  0
   31.7310   38.0100   61.0339 H   0  0  0  0  0  0  0  0  0  0  0  0
   30.1587   36.7534   62.9093 H   0  0  0  0  0  0  0  0  0  0  0  0
   33.2408   35.9059   64.4377 H   0  0  0  0  0  0  0  0  0  0  0  0
   34.3643   37.2186   66.1889 H   0  0  0  0  0  0  0  0  0  0  0  0
   30.4053   39.0574   63.8877 H   0  0  0  0  0  0  0  0  0  0  0  0
   31.7152   40.3510   67.9666 H   0  0  0  0  0  0  0  0  0  0  0  0
   32.7076   41.7016   67.3307 H   0  0  0  0  0  0  0  0  0  0  0  0
  1  2  2  0  0  0  0
  2  3  1  0  0  0  0
  2 17  1  0  0  0  0
  3  4  1  0  0  0  0
  3 27  1  0  0  0  0
  3 28  1  0  0  0  0
  4 15  1  0  0  0  0
  4  5  1  0  0  0  0
  5  6  2  0  0  0  0
  5  7  1  0  0  0  0
  7 16  2  0  0  0  0
  7  8  1  0  0  0  0
  8  9  2  0  0  0  0
  8 29  1  0  0  0  0
  9 10  1  0  0  0  0
  9 30  1  0  0  0  0
 10 11  2  0  0  0  0
 10 31  1  0  0  0  0
 11 16  1  0  0  0  0
 11 12  1  0  0  0  0
 12 13  2  0  0  0  0
 12 32  1  0  0  0  0
 13 14  1  0  0  0  0
 13 33  1  0  0  0  0
 14 15  2  0  0  0  0
 14 34  1  0  0  0  0
 15 16  1  0  0  0  0
 17 18  1  0  0  0  0
 17 35  1  0  0  0  0
 18 23  2  0  0  0  0
 18 19  1  0  0  0  0
 19 20  2  0  0  0  0
 19 36  1  0  0  0  0
 20 21  1  0  0  0  0
 20 37  1  0  0  0  0
 21 26  1  0  0  0  0
 21 22  2  0  0  0  0
 22 23  1  0  0  0  0
 22 24  1  0  0  0  0
 23 38  1  0  0  0  0
 24 25  1  0  0  0  0
 25 26  1  0  0  0  0
 25 39  1  0  0  0  0
 25 40  1  0  0  0  0
M  END
$$$$
