ZINC000000040587      none
 OpenBabel11202420153D

 26 28  0  0  0  0  0  0  0  0999 V2000
   34.9566   38.1999   54.7791 O   0  0  0  0  0  0  0  0  0  0  0  0
   33.9989   37.5985   55.2044 C   0  0  0  0  0  0  0  0  0  0  0  0
   33.4139   36.4141   54.4616 C   0  0  0  0  0  0  0  0  0  0  0  0
   33.4737   35.2066   55.4083 C   0  0  0  0  0  0  0  0  0  0  0  0
   33.0185   35.6195   56.7856 C   0  0  0  0  0  0  0  0  0  0  0  0
   32.5915   34.6365   57.6621 C   0  0  0  0  0  0  0  0  0  0  0  0
   32.1786   34.9588   58.9437 C   0  0  0  0  0  0  0  0  0  0  0  0
   32.1978   36.2793   59.3575 C   0  0  0  0  0  0  0  0  0  0  0  0
   32.6211   37.2685   58.4793 C   0  0  0  0  0  0  0  0  0  0  0  0
   33.0221   36.9430   57.1901 C   0  0  0  0  0  0  0  0  0  0  0  0
   33.4030   37.9509   56.3597 O   0  0  0  0  0  0  0  0  0  0  0  0
   31.8198   36.6490   60.6109 O   0  0  0  0  0  0  0  0  0  0  0  0
   31.2105   35.7148   61.3659 C   0  0  0  0  0  0  0  0  0  0  0  0
   30.2566   35.9851   62.0566 O   0  0  0  0  0  0  0  0  0  0  0  0
   31.7749   34.3094   61.3098 C   0  0  0  0  0  0  0  0  0  0  0  0
   31.7145   33.8467   59.8506 C   0  0  0  0  0  0  0  0  0  0  0  0
   32.3811   36.6248   54.1840 H   0  0  0  0  0  0  0  0  0  0  0  0
   34.0030   36.2104   53.5674 H   0  0  0  0  0  0  0  0  0  0  0  0
   34.4936   34.8259   55.4626 H   0  0  0  0  0  0  0  0  0  0  0  0
   32.8158   34.4250   55.0283 H   0  0  0  0  0  0  0  0  0  0  0  0
   32.5800   33.6051   57.3418 H   0  0  0  0  0  0  0  0  0  0  0  0
   32.6341   38.2997   58.8001 H   0  0  0  0  0  0  0  0  0  0  0  0
   32.8088   34.3116   61.6549 H   0  0  0  0  0  0  0  0  0  0  0  0
   31.1775   33.6454   61.9347 H   0  0  0  0  0  0  0  0  0  0  0  0
   32.3599   32.9782   59.7187 H   0  0  0  0  0  0  0  0  0  0  0  0
   30.6889   33.5779   59.5976 H   0  0  0  0  0  0  0  0  0  0  0  0
  1  2  2  0  0  0  0
  2 11  1  0  0  0  0
  2  3  1  0  0  0  0
  3  4  1  0  0  0  0
  3 17  1  0  0  0  0
  3 18  1  0  0  0  0
  4  5  1  0  0  0  0
  4 19  1  0  0  0  0
  4 20  1  0  0  0  0
  5 10  2  0  0  0  0
  5  6  1  0  0  0  0
  6  7  2  0  0  0  0
  6 21  1  0  0  0  0
  7 16  1  0  0  0  0
  7  8  1  0  0  0  0
  8  9  2  0  0  0  0
  8 12  1  0  0  0  0
  9 10  1  0  0  0  0
  9 22  1  0  0  0  0
 10 11  1  0  0  0  0
 12 13  1  0  0  0  0
 13 14  2  0  0  0  0
 13 15  1  0  0  0  0
 15 16  1  0  0  0  0
 15 23  1  0  0  0  0
 15 24  1  0  0  0  0
 16 25  1  0  0  0  0
 16 26  1  0  0  0  0
M  END
$$$$
