ZINC000000037476      none
 OpenBabel11202420153D

 34 36  0  0  0  0  0  0  0  0999 V2000
   30.6332   36.8636   65.1625 C   0  0  0  0  0  0  0  0  0  0  0  0
   31.0183   36.5110   63.7489 C   0  0  0  0  0  0  0  0  0  0  0  0
   31.4979   35.2396   63.4634 C   0  0  0  0  0  0  0  0  0  0  0  0
   31.8444   34.9062   62.1850 C   0  0  0  0  0  0  0  0  0  0  0  0
   31.7236   35.8616   61.1566 C   0  0  0  0  0  0  0  0  0  0  0  0
   32.0847   35.5290   59.8277 C   0  0  0  0  0  0  0  0  0  0  0  0
   32.0025   34.1972   59.2290 C   0  0  0  0  0  0  0  0  0  0  0  0
   32.4413   34.3137   57.9492 C   0  0  0  0  0  0  0  0  0  0  0  0
   32.7973   35.7257   57.7534 C   0  0  0  0  0  0  0  0  0  0  0  0
   33.2974   36.2843   56.5844 C   0  0  0  0  0  0  0  0  0  0  0  0
   33.5963   37.6510   56.5337 C   0  0  0  0  0  0  0  0  0  0  0  0
   34.0947   38.3478   55.4761 N   0  0  0  0  0  0  0  0  0  0  0  0
   34.2350   39.6339   55.8373 C   0  0  0  0  0  0  0  0  0  0  0  0
   34.6563   40.5085   55.1071 O   0  0  0  0  0  0  0  0  0  0  0  0
   33.8561   39.8276   57.1106 N   0  0  0  0  0  0  0  0  0  0  0  0
   33.4421   38.6527   57.6312 C   0  0  0  0  0  0  0  0  0  0  0  0
   33.0304   38.4525   58.7550 O   0  0  0  0  0  0  0  0  0  0  0  0
   32.5605   36.3851   58.9065 O   0  0  0  0  0  0  0  0  0  0  0  0
   31.2355   37.1479   61.4584 C   0  0  0  0  0  0  0  0  0  0  0  0
   30.8901   37.4573   62.7434 C   0  0  0  0  0  0  0  0  0  0  0  0
   30.3774   38.8082   63.0640 N   0  0  0  0  0  0  0  0  0  0  0  0
   30.0438   39.1093   64.3020 O   0  0  0  0  0  0  0  0  0  0  0  0
   30.2548   39.7092   62.1112 O   0  0  0  0  0  0  0  0  0  0  0  0
   29.5564   36.7471   65.2856 H   0  0  0  0  0  0  0  0  0  0  0  0
   31.1519   36.2024   65.8565 H   0  0  0  0  0  0  0  0  0  0  0  0
   30.9125   37.8970   65.3675 H   0  0  0  0  0  0  0  0  0  0  0  0
   31.5939   34.5105   64.2542 H   0  0  0  0  0  0  0  0  0  0  0  0
   32.2133   33.9155   61.9642 H   0  0  0  0  0  0  0  0  0  0  0  0
   31.6587   33.2945   59.7119 H   0  0  0  0  0  0  0  0  0  0  0  0
   32.5145   33.5224   57.2178 H   0  0  0  0  0  0  0  0  0  0  0  0
   33.4555   35.6644   55.7143 H   0  0  0  0  0  0  0  0  0  0  0  0
   34.3101   37.9778   54.6057 H   0  0  0  0  0  0  0  0  0  0  0  0
   33.8765   40.6757   57.5811 H   0  0  0  0  0  0  0  0  0  0  0  0
   31.1353   37.8869   60.6772 H   0  0  0  0  0  0  0  0  0  0  0  0
  1  2  1  0  0  0  0
  1 24  1  0  0  0  0
  1 25  1  0  0  0  0
  1 26  1  0  0  0  0
  2 20  2  0  0  0  0
  2  3  1  0  0  0  0
  3  4  2  0  0  0  0
  3 27  1  0  0  0  0
  4  5  1  0  0  0  0
  4 28  1  0  0  0  0
  5  6  1  0  0  0  0
  5 19  2  0  0  0  0
  6 18  1  0  0  0  0
  6  7  2  0  0  0  0
  7  8  1  0  0  0  0
  7 29  1  0  0  0  0
  8  9  2  0  0  0  0
  8 30  1  0  0  0  0
  9 10  1  0  0  0  0
  9 18  1  0  0  0  0
 10 11  2  0  0  0  0
 10 31  1  0  0  0  0
 11 16  1  0  0  0  0
 11 12  1  0  0  0  0
 12 13  1  0  0  0  0
 12 32  1  0  0  0  0
 13 14  2  0  0  0  0
 13 15  1  0  0  0  0
 15 16  1  0  0  0  0
 15 33  1  0  0  0  0
 16 17  2  0  0  0  0
 19 20  1  0  0  0  0
 19 34  1  0  0  0  0
 20 21  1  0  0  0  0
 21 22  2  0  0  0  0
 21 23  2  0  0  0  0
M  END
$$$$
