ZINC000000027621      none
 OpenBabel11202420153D

 36 36  0  0  0  0  0  0  0  0999 V2000
   32.3596   35.9578   62.9331 C   0  0  0  0  0  0  0  0  0  0  0  0
   31.4577   35.5179   61.8089 C   0  0  0  0  0  0  0  0  0  0  0  0
   30.3522   35.0968   62.0511 O   0  0  0  0  0  0  0  0  0  0  0  0
   31.9356   35.6035   60.3822 C   0  0  0  0  0  0  0  0  0  0  0  0
   32.3287   37.3239   59.9799 S   0  0  0  0  0  0  0  0  0  0  0  0
   32.8455   37.1362   58.3059 C   0  0  0  0  0  0  0  0  0  0  0  0
   32.8448   35.9354   57.7466 N   0  0  0  0  0  0  0  0  0  0  0  0
   33.2234   35.7512   56.4971 C   0  0  0  0  0  0  0  0  0  0  0  0
   33.2013   34.3614   55.9151 C   0  0  0  0  0  0  0  0  0  0  0  0
   32.7067   33.3731   56.9731 C   0  0  0  0  0  0  0  0  0  0  0  0
   32.2618   34.3288   54.7079 C   0  0  0  0  0  0  0  0  0  0  0  0
   34.6131   33.9710   55.4731 C   0  0  0  0  0  0  0  0  0  0  0  0
   33.6350   36.8109   55.7085 C   0  0  0  0  0  0  0  0  0  0  0  0
   33.6619   38.0875   56.2420 C   0  0  0  0  0  0  0  0  0  0  0  0
   34.1110   39.2620   55.4113 C   0  0  0  0  0  0  0  0  0  0  0  0
   33.2562   38.2620   57.5701 C   0  0  0  0  0  0  0  0  0  0  0  0
   33.2589   39.5630   58.1685 C   0  0  0  0  0  0  0  0  0  0  0  0
   33.2611   40.5950   58.6433 N   0  0  0  0  0  0  0  0  0  0  0  0
   32.1989   37.0168   63.1347 H   0  0  0  0  0  0  0  0  0  0  0  0
   32.1328   35.3791   63.8286 H   0  0  0  0  0  0  0  0  0  0  0  0
   33.3995   35.7957   62.6495 H   0  0  0  0  0  0  0  0  0  0  0  0
   31.1525   35.2440   59.7146 H   0  0  0  0  0  0  0  0  0  0  0  0
   32.8274   34.9889   60.2602 H   0  0  0  0  0  0  0  0  0  0  0  0
   31.7009   33.6512   57.2880 H   0  0  0  0  0  0  0  0  0  0  0  0
   32.6907   32.3678   56.5521 H   0  0  0  0  0  0  0  0  0  0  0  0
   33.3760   33.3963   57.8332 H   0  0  0  0  0  0  0  0  0  0  0  0
   32.6142   35.0327   53.9541 H   0  0  0  0  0  0  0  0  0  0  0  0
   32.2459   33.3234   54.2869 H   0  0  0  0  0  0  0  0  0  0  0  0
   31.2559   34.6067   55.0227 H   0  0  0  0  0  0  0  0  0  0  0  0
   35.2825   33.9942   56.3330 H   0  0  0  0  0  0  0  0  0  0  0  0
   34.5972   32.9658   55.0521 H   0  0  0  0  0  0  0  0  0  0  0  0
   34.9655   34.6750   54.7194 H   0  0  0  0  0  0  0  0  0  0  0  0
   33.9371   36.6425   54.6855 H   0  0  0  0  0  0  0  0  0  0  0  0
   35.1864   39.3980   55.5258 H   0  0  0  0  0  0  0  0  0  0  0  0
   33.5935   40.1617   55.7444 H   0  0  0  0  0  0  0  0  0  0  0  0
   33.8778   39.0759   54.3629 H   0  0  0  0  0  0  0  0  0  0  0  0
  1  2  1  0  0  0  0
  1 19  1  0  0  0  0
  1 20  1  0  0  0  0
  1 21  1  0  0  0  0
  2  3  2  0  0  0  0
  2  4  1  0  0  0  0
  4  5  1  0  0  0  0
  4 22  1  0  0  0  0
  4 23  1  0  0  0  0
  5  6  1  0  0  0  0
  6 16  2  0  0  0  0
  6  7  1  0  0  0  0
  7  8  2  0  0  0  0
  8  9  1  0  0  0  0
  8 13  1  0  0  0  0
  9 10  1  0  0  0  0
  9 11  1  0  0  0  0
  9 12  1  0  0  0  0
 10 24  1  0  0  0  0
 10 25  1  0  0  0  0
 10 26  1  0  0  0  0
 11 27  1  0  0  0  0
 11 28  1  0  0  0  0
 11 29  1  0  0  0  0
 12 30  1  0  0  0  0
 12 31  1  0  0  0  0
 12 32  1  0  0  0  0
 13 14  2  0  0  0  0
 13 33  1  0  0  0  0
 14 15  1  0  0  0  0
 14 16  1  0  0  0  0
 15 34  1  0  0  0  0
 15 35  1  0  0  0  0
 15 36  1  0  0  0  0
 16 17  1  0  0  0  0
 17 18  3  0  0  0  0
M  END
$$$$
