ZINC000000001691      none
 OpenBabel11202420153D

 20 20  0  0  0  0  0  0  0  0999 V2000
   34.9537   38.8241   53.1273 C   0  0  0  0  0  0  0  0  0  0  0  0
   34.5108   39.0118   54.5556 C   0  0  0  0  0  0  0  0  0  0  0  0
   34.5472   40.1133   55.0620 O   0  0  0  0  0  0  0  0  0  0  0  0
   34.0742   37.9558   55.2700 N   0  0  0  0  0  0  0  0  0  0  0  0
   33.6629   38.1300   56.5960 C   0  0  0  0  0  0  0  0  0  0  0  0
   33.2122   37.0421   57.3331 C   0  0  0  0  0  0  0  0  0  0  0  0
   32.8054   37.2143   58.6418 C   0  0  0  0  0  0  0  0  0  0  0  0
   32.8517   38.4673   59.2234 C   0  0  0  0  0  0  0  0  0  0  0  0
   33.2955   39.5586   58.4900 C   0  0  0  0  0  0  0  0  0  0  0  0
   33.3348   40.7911   59.0613 O   0  0  0  0  0  0  0  0  0  0  0  0
   33.7043   39.3897   57.1762 C   0  0  0  0  0  0  0  0  0  0  0  0
   34.8504   37.7751   52.8498 H   0  0  0  0  0  0  0  0  0  0  0  0
   34.3345   39.4360   52.4715 H   0  0  0  0  0  0  0  0  0  0  0  0
   35.9965   39.1253   53.0277 H   0  0  0  0  0  0  0  0  0  0  0  0
   34.0451   37.0748   54.8650 H   0  0  0  0  0  0  0  0  0  0  0  0
   33.1796   36.0611   56.8826 H   0  0  0  0  0  0  0  0  0  0  0  0
   32.4549   36.3675   59.2132 H   0  0  0  0  0  0  0  0  0  0  0  0
   32.5374   38.5981   60.2484 H   0  0  0  0  0  0  0  0  0  0  0  0
   33.0346   40.8083   59.9803 H   0  0  0  0  0  0  0  0  0  0  0  0
   34.0539   40.2372   56.6052 H   0  0  0  0  0  0  0  0  0  0  0  0
  1  2  1  0  0  0  0
  1 12  1  0  0  0  0
  1 13  1  0  0  0  0
  1 14  1  0  0  0  0
  2  3  2  0  0  0  0
  2  4  1  0  0  0  0
  4  5  1  0  0  0  0
  4 15  1  0  0  0  0
  5 11  2  0  0  0  0
  5  6  1  0  0  0  0
  6  7  2  0  0  0  0
  6 16  1  0  0  0  0
  7  8  1  0  0  0  0
  7 17  1  0  0  0  0
  8  9  2  0  0  0  0
  8 18  1  0  0  0  0
  9 10  1  0  0  0  0
  9 11  1  0  0  0  0
 10 19  1  0  0  0  0
 11 20  1  0  0  0  0
M  END
$$$$
