ZINC000000035800      none
 OpenBabel11202420153D

 28 30  0  0  0  0  0  0  0  0999 V2000
   32.6733   35.0694   54.0727 N   0  0  0  0  0  0  0  0  0  0  0  0
   33.5355   34.0522   54.4945 C   0  0  0  0  0  0  0  0  0  0  0  0
   34.0182   33.1261   53.5810 C   0  0  0  0  0  0  0  0  0  0  0  0
   34.8699   32.1216   54.0003 C   0  0  0  0  0  0  0  0  0  0  0  0
   35.2474   32.0390   55.3281 C   0  0  0  0  0  0  0  0  0  0  0  0
   34.7668   32.9543   56.2458 C   0  0  0  0  0  0  0  0  0  0  0  0
   33.9121   33.9654   55.8341 C   0  0  0  0  0  0  0  0  0  0  0  0
   33.4278   34.8993   56.7633 N   0  0  0  0  0  0  0  0  0  0  0  0
   33.6416   36.2255   56.6915 C   0  0  0  0  0  0  0  0  0  0  0  0
   34.2748   36.7957   55.8261 O   0  0  0  0  0  0  0  0  0  0  0  0
   32.9742   36.8731   57.8406 C   0  0  0  0  0  0  0  0  0  0  0  0
   32.8522   38.1825   58.2767 C   0  0  0  0  0  0  0  0  0  0  0  0
   32.1419   38.4577   59.4349 C   0  0  0  0  0  0  0  0  0  0  0  0
   31.5543   37.4354   60.1561 C   0  0  0  0  0  0  0  0  0  0  0  0
   31.6676   36.1207   59.7316 C   0  0  0  0  0  0  0  0  0  0  0  0
   32.3749   35.8304   58.5761 C   0  0  0  0  0  0  0  0  0  0  0  0
   32.6936   34.5853   57.8460 C   0  0  0  0  0  0  0  0  0  0  0  0
   32.3502   33.4662   58.1693 O   0  0  0  0  0  0  0  0  0  0  0  0
   32.3363   35.7158   54.7126 H   0  0  0  0  0  0  0  0  0  0  0  0
   32.4121   35.1284   53.1404 H   0  0  0  0  0  0  0  0  0  0  0  0
   33.7289   33.1905   52.5425 H   0  0  0  0  0  0  0  0  0  0  0  0
   35.2448   31.4013   53.2882 H   0  0  0  0  0  0  0  0  0  0  0  0
   35.9164   31.2546   55.6500 H   0  0  0  0  0  0  0  0  0  0  0  0
   35.0608   32.8846   57.2827 H   0  0  0  0  0  0  0  0  0  0  0  0
   33.3093   38.9852   57.7171 H   0  0  0  0  0  0  0  0  0  0  0  0
   32.0466   39.4781   59.7758 H   0  0  0  0  0  0  0  0  0  0  0  0
   31.0029   37.6625   61.0565 H   0  0  0  0  0  0  0  0  0  0  0  0
   31.2061   35.3260   60.2990 H   0  0  0  0  0  0  0  0  0  0  0  0
  1  2  1  0  0  0  0
  1 19  1  0  0  0  0
  1 20  1  0  0  0  0
  2  7  2  0  0  0  0
  2  3  1  0  0  0  0
  3  4  2  0  0  0  0
  3 21  1  0  0  0  0
  4  5  1  0  0  0  0
  4 22  1  0  0  0  0
  5  6  2  0  0  0  0
  5 23  1  0  0  0  0
  6  7  1  0  0  0  0
  6 24  1  0  0  0  0
  7  8  1  0  0  0  0
  8 17  1  0  0  0  0
  8  9  1  0  0  0  0
  9 10  2  0  0  0  0
  9 11  1  0  0  0  0
 11 16  2  0  0  0  0
 11 12  1  0  0  0  0
 12 13  2  0  0  0  0
 12 25  1  0  0  0  0
 13 14  1  0  0  0  0
 13 26  1  0  0  0  0
 14 15  2  0  0  0  0
 14 27  1  0  0  0  0
 15 16  1  0  0  0  0
 15 28  1  0  0  0  0
 16 17  1  0  0  0  0
 17 18  2  0  0  0  0
M  END
$$$$
