ZINC000000049638      none
 OpenBabel11202420153D

 32 34  0  0  0  0  0  0  0  0999 V2000
   28.8798   35.8070   64.5287 C   0  0  0  0  0  0  0  0  0  0  0  0
   30.3945   35.5929   64.5037 C   0  0  0  0  0  0  0  0  0  0  0  0
   30.9008   35.8712   63.1717 O   0  0  0  0  0  0  0  0  0  0  0  0
   30.9465   34.8392   62.3069 C   0  0  0  0  0  0  0  0  0  0  0  0
   30.5738   33.7371   62.6561 O   0  0  0  0  0  0  0  0  0  0  0  0
   31.4502   35.0479   60.9338 C   0  0  0  0  0  0  0  0  0  0  0  0
   31.9133   36.2600   60.4090 C   0  0  0  0  0  0  0  0  0  0  0  0
   32.2931   36.0305   59.0963 C   0  0  0  0  0  0  0  0  0  0  0  0
   32.7984   36.8377   58.1510 N   0  0  0  0  0  0  0  0  0  0  0  0
   33.0845   36.3823   56.9570 C   0  0  0  0  0  0  0  0  0  0  0  0
   32.8633   35.0221   56.6441 C   0  0  0  0  0  0  0  0  0  0  0  0
   33.1852   34.5003   55.2922 C   0  0  0  0  0  0  0  0  0  0  0  0
   32.6597   34.9120   54.1580 N   0  0  0  0  0  0  0  0  0  0  0  0
   33.2316   34.1684   53.1178 N   0  0  0  0  0  0  0  0  0  0  0  0
   33.0303   34.2622   52.1735 H   0  0  0  0  0  0  0  0  0  0  0  0
   34.1074   33.2941   53.6583 C   0  0  0  0  0  0  0  0  0  0  0  0
   34.1025   33.4730   54.9973 C   0  0  0  0  0  0  0  0  0  0  0  0
   34.9165   32.7227   55.9800 N   0  0  0  0  0  0  0  0  0  0  0  0
   34.8239   32.9764   57.1676 O   0  0  0  0  0  0  0  0  0  0  0  0
   35.6787   31.8516   55.6008 O   0  0  0  0  0  0  0  0  0  0  0  0
   32.3493   34.1936   57.6001 C   0  0  0  0  0  0  0  0  0  0  0  0
   32.0628   34.7030   58.8343 N   0  0  0  0  0  0  0  0  0  0  0  0
   31.5442   34.1182   59.9955 N   0  0  0  0  0  0  0  0  0  0  0  0
   28.6544   36.8397   64.2627 H   0  0  0  0  0  0  0  0  0  0  0  0
   28.4061   35.1358   63.8123 H   0  0  0  0  0  0  0  0  0  0  0  0
   28.4996   35.5981   65.5286 H   0  0  0  0  0  0  0  0  0  0  0  0
   30.6198   34.5601   64.7697 H   0  0  0  0  0  0  0  0  0  0  0  0
   30.8681   36.2641   65.2201 H   0  0  0  0  0  0  0  0  0  0  0  0
   31.9650   37.2033   60.9324 H   0  0  0  0  0  0  0  0  0  0  0  0
   33.4902   37.0479   56.2095 H   0  0  0  0  0  0  0  0  0  0  0  0
   34.7064   32.5778   53.1157 H   0  0  0  0  0  0  0  0  0  0  0  0
   32.1725   33.1504   57.3833 H   0  0  0  0  0  0  0  0  0  0  0  0
  1  2  1  0  0  0  0
  1 24  1  0  0  0  0
  1 25  1  0  0  0  0
  1 26  1  0  0  0  0
  2  3  1  0  0  0  0
  2 27  1  0  0  0  0
  2 28  1  0  0  0  0
  3  4  1  0  0  0  0
  4  5  2  0  0  0  0
  4  6  1  0  0  0  0
  6 23  2  0  0  0  0
  6  7  1  0  0  0  0
  7  8  2  0  0  0  0
  7 29  1  0  0  0  0
  8 22  1  0  0  0  0
  8  9  1  0  0  0  0
  9 10  2  0  0  0  0
 10 11  1  0  0  0  0
 10 30  1  0  0  0  0
 11 12  1  0  0  0  0
 11 21  2  0  0  0  0
 12 17  1  0  0  0  0
 12 13  2  0  0  0  0
 13 14  1  0  0  0  0
 14 15  1  0  0  0  0
 14 16  1  0  0  0  0
 16 17  2  0  0  0  0
 16 31  1  0  0  0  0
 17 18  1  0  0  0  0
 18 19  2  0  0  0  0
 18 20  2  0  0  0  0
 21 22  1  0  0  0  0
 21 32  1  0  0  0  0
 22 23  1  0  0  0  0
M  END
$$$$
