ZINC000000031541      none
 OpenBabel11202420163D

 25 26  0  0  1  0  0  0  0  0999 V2000
   30.7560   37.3607   64.5060 C   0  0  0  0  0  0  0  0  0  0  0  0
   31.2521   36.0031   64.0040 C   0  0  1  0  0  0  0  0  0  0  0  0
   30.3064   35.4750   62.5350 S   0  0  0  0  0  0  0  0  0  0  0  0
   31.6817   35.4483   61.4991 C   0  0  0  0  0  0  0  0  0  0  0  0
   31.6721   35.0800   60.0378 C   0  0  0  0  0  0  0  0  0  0  0  0
   32.1701   36.2456   59.2227 C   0  0  0  0  0  0  0  0  0  0  0  0
   32.8300   36.0219   58.0287 C   0  0  0  0  0  0  0  0  0  0  0  0
   33.2869   37.0905   57.2806 C   0  0  0  0  0  0  0  0  0  0  0  0
   33.0842   38.3842   57.7272 C   0  0  0  0  0  0  0  0  0  0  0  0
   33.6588   39.7269   56.7888 Cl  0  0  0  0  0  0  0  0  0  0  0  0
   32.4233   38.6074   58.9220 C   0  0  0  0  0  0  0  0  0  0  0  0
   31.9664   37.5380   59.6690 C   0  0  0  0  0  0  0  0  0  0  0  0
   32.7284   35.8034   62.1827 N   0  0  0  0  0  0  0  0  0  0  0  0
   32.6620   36.1124   63.4576 C   0  0  0  0  0  0  0  0  0  0  0  0
   33.6212   36.4481   64.1230 O   0  0  0  0  0  0  0  0  0  0  0  0
   30.7591   38.0756   63.6833 H   0  0  0  0  0  0  0  0  0  0  0  0
   29.7425   37.2566   64.8933 H   0  0  0  0  0  0  0  0  0  0  0  0
   31.4133   37.7170   65.2994 H   0  0  0  0  0  0  0  0  0  0  0  0
   31.1991   35.2535   64.7935 H   0  0  0  0  0  0  0  0  0  0  0  0
   30.6558   34.8309   59.7326 H   0  0  0  0  0  0  0  0  0  0  0  0
   32.3213   34.2194   59.8758 H   0  0  0  0  0  0  0  0  0  0  0  0
   32.9925   35.0119   57.6826 H   0  0  0  0  0  0  0  0  0  0  0  0
   33.8027   36.9157   56.3480 H   0  0  0  0  0  0  0  0  0  0  0  0
   32.2647   39.6170   59.2711 H   0  0  0  0  0  0  0  0  0  0  0  0
   31.4504   37.7121   60.6017 H   0  0  0  0  0  0  0  0  0  0  0  0
  1  2  1  0  0  0  0
  1 16  1  0  0  0  0
  1 17  1  0  0  0  0
  1 18  1  0  0  0  0
  2 14  1  0  0  0  0
  2  3  1  0  0  0  0
  2 19  1  1  0  0  0
  3  4  1  0  0  0  0
  4  5  1  0  0  0  0
  4 13  2  0  0  0  0
  5  6  1  0  0  0  0
  5 20  1  0  0  0  0
  5 21  1  0  0  0  0
  6 12  2  0  0  0  0
  6  7  1  0  0  0  0
  7  8  2  0  0  0  0
  7 22  1  0  0  0  0
  8  9  1  0  0  0  0
  8 23  1  0  0  0  0
  9 10  1  0  0  0  0
  9 11  2  0  0  0  0
 11 12  1  0  0  0  0
 11 24  1  0  0  0  0
 12 25  1  0  0  0  0
 13 14  1  0  0  0  0
 14 15  2  0  0  0  0
M  END
$$$$
