ZINC000000028417      none
 OpenBabel11202420163D

 38 39  0  0  0  0  0  0  0  0999 V2000
   29.9078   34.3455   64.6326 C   0  0  0  0  0  0  0  0  0  0  0  0
   30.9162   35.3904   64.1509 C   0  0  0  0  0  0  0  0  0  0  0  0
   31.1631   35.2071   62.7185 N   0  0  0  0  0  0  0  0  0  0  0  0
   32.2383   34.3196   62.2683 C   0  0  0  0  0  0  0  0  0  0  0  0
   31.6901   32.9019   62.0943 C   0  0  0  0  0  0  0  0  0  0  0  0
   30.4012   35.8549   61.8151 C   0  0  0  0  0  0  0  0  0  0  0  0
   29.5113   36.5897   62.1878 O   0  0  0  0  0  0  0  0  0  0  0  0
   30.6512   35.6615   60.3415 C   0  0  0  0  0  0  0  0  0  0  0  0
   31.9835   36.0711   60.0266 O   0  0  0  0  0  0  0  0  0  0  0  0
   32.3726   35.9604   58.7291 C   0  0  0  0  0  0  0  0  0  0  0  0
   32.3672   34.7061   58.1119 C   0  0  0  0  0  0  0  0  0  0  0  0
   32.7463   34.5640   56.8134 C   0  0  0  0  0  0  0  0  0  0  0  0
   33.1606   35.6899   56.0805 C   0  0  0  0  0  0  0  0  0  0  0  0
   33.5632   35.5778   54.7388 C   0  0  0  0  0  0  0  0  0  0  0  0
   33.9579   36.6888   54.0589 C   0  0  0  0  0  0  0  0  0  0  0  0
   33.9700   37.9398   54.6732 C   0  0  0  0  0  0  0  0  0  0  0  0
   33.5864   38.0868   55.9707 C   0  0  0  0  0  0  0  0  0  0  0  0
   33.1722   36.9622   56.7052 C   0  0  0  0  0  0  0  0  0  0  0  0
   32.7694   37.0758   58.0466 C   0  0  0  0  0  0  0  0  0  0  0  0
   32.7758   38.7623   58.9020 Br  0  0  0  0  0  0  0  0  0  0  0  0
   29.7242   34.4819   65.6981 H   0  0  0  0  0  0  0  0  0  0  0  0
   28.9729   34.4633   64.0847 H   0  0  0  0  0  0  0  0  0  0  0  0
   30.3081   33.3468   64.4577 H   0  0  0  0  0  0  0  0  0  0  0  0
   31.8512   35.2727   64.6987 H   0  0  0  0  0  0  0  0  0  0  0  0
   30.5161   36.3892   64.3257 H   0  0  0  0  0  0  0  0  0  0  0  0
   32.6297   34.6773   61.3159 H   0  0  0  0  0  0  0  0  0  0  0  0
   33.0373   34.3118   63.0096 H   0  0  0  0  0  0  0  0  0  0  0  0
   31.2987   32.5442   63.0467 H   0  0  0  0  0  0  0  0  0  0  0  0
   30.8910   32.9097   61.3531 H   0  0  0  0  0  0  0  0  0  0  0  0
   32.4901   32.2416   61.7593 H   0  0  0  0  0  0  0  0  0  0  0  0
   30.5246   34.6093   60.0866 H   0  0  0  0  0  0  0  0  0  0  0  0
   29.9422   36.2614   59.7710 H   0  0  0  0  0  0  0  0  0  0  0  0
   32.0537   33.8381   58.6729 H   0  0  0  0  0  0  0  0  0  0  0  0
   32.7333   33.5893   56.3485 H   0  0  0  0  0  0  0  0  0  0  0  0
   33.5591   34.6151   54.2495 H   0  0  0  0  0  0  0  0  0  0  0  0
   34.2669   36.5996   53.0278 H   0  0  0  0  0  0  0  0  0  0  0  0
   34.2884   38.8054   54.1113 H   0  0  0  0  0  0  0  0  0  0  0  0
   33.6001   39.0625   56.4335 H   0  0  0  0  0  0  0  0  0  0  0  0
  1  2  1  0  0  0  0
  1 21  1  0  0  0  0
  1 22  1  0  0  0  0
  1 23  1  0  0  0  0
  2  3  1  0  0  0  0
  2 24  1  0  0  0  0
  2 25  1  0  0  0  0
  3  4  1  0  0  0  0
  3  6  1  0  0  0  0
  4  5  1  0  0  0  0
  4 26  1  0  0  0  0
  4 27  1  0  0  0  0
  5 28  1  0  0  0  0
  5 29  1  0  0  0  0
  5 30  1  0  0  0  0
  6  7  2  0  0  0  0
  6  8  1  0  0  0  0
  8  9  1  0  0  0  0
  8 31  1  0  0  0  0
  8 32  1  0  0  0  0
  9 10  1  0  0  0  0
 10 19  2  0  0  0  0
 10 11  1  0  0  0  0
 11 12  2  0  0  0  0
 11 33  1  0  0  0  0
 12 13  1  0  0  0  0
 12 34  1  0  0  0  0
 13 18  2  0  0  0  0
 13 14  1  0  0  0  0
 14 15  2  0  0  0  0
 14 35  1  0  0  0  0
 15 16  1  0  0  0  0
 15 36  1  0  0  0  0
 16 17  2  0  0  0  0
 16 37  1  0  0  0  0
 17 18  1  0  0  0  0
 17 38  1  0  0  0  0
 18 19  1  0  0  0  0
 19 20  1  0  0  0  0
M  END
$$$$
