ZINC000000035774      none
 OpenBabel11202420153D

 31 32  0  0  0  0  0  0  0  0999 V2000
   32.0992   33.7969   60.5306 C   0  0  0  0  0  0  0  0  0  0  0  0
   30.8531   34.4557   60.7655 O   0  0  0  0  0  0  0  0  0  0  0  0
   30.8771   35.5522   61.5640 C   0  0  0  0  0  0  0  0  0  0  0  0
   30.7021   35.4136   62.9368 C   0  0  0  0  0  0  0  0  0  0  0  0
   30.7248   36.5124   63.7477 C   0  0  0  0  0  0  0  0  0  0  0  0
   30.9247   37.7846   63.1976 C   0  0  0  0  0  0  0  0  0  0  0  0
   30.9490   38.9679   64.0672 C   0  0  0  0  0  0  0  0  0  0  0  0
   31.7758   39.0547   64.9504 O   0  0  0  0  0  0  0  0  0  0  0  0
   31.1066   37.9243   61.8161 C   0  0  0  0  0  0  0  0  0  0  0  0
   31.0768   36.8108   61.0072 C   0  0  0  0  0  0  0  0  0  0  0  0
   31.2668   36.9551   59.5192 C   0  0  0  0  0  0  0  0  0  0  0  0
   32.6499   38.0825   59.1927 S   0  0  0  0  0  0  0  0  0  0  0  0
   33.1045   37.6833   57.5378 C   0  0  0  0  0  0  0  0  0  0  0  0
   33.6520   38.6651   56.7168 C   0  0  0  0  0  0  0  0  0  0  0  0
   34.0084   38.3367   55.4219 C   0  0  0  0  0  0  0  0  0  0  0  0
   33.7964   37.0351   54.9856 C   0  0  0  0  0  0  0  0  0  0  0  0
   33.2493   36.1115   55.8535 C   0  0  0  0  0  0  0  0  0  0  0  0
   32.9225   36.4516   57.0859 N   0  0  0  0  0  0  0  0  0  0  0  0
   31.9392   32.9386   59.8780 H   0  0  0  0  0  0  0  0  0  0  0  0
   32.7929   34.4903   60.0553 H   0  0  0  0  0  0  0  0  0  0  0  0
   32.5160   33.4591   61.4794 H   0  0  0  0  0  0  0  0  0  0  0  0
   30.5481   34.4333   63.3633 H   0  0  0  0  0  0  0  0  0  0  0  0
   30.5888   36.4002   64.8132 H   0  0  0  0  0  0  0  0  0  0  0  0
   30.2305   39.7608   63.9203 H   0  0  0  0  0  0  0  0  0  0  0  0
   31.2656   38.9021   61.3865 H   0  0  0  0  0  0  0  0  0  0  0  0
   30.3570   37.3579   59.0740 H   0  0  0  0  0  0  0  0  0  0  0  0
   31.4830   35.9793   59.0843 H   0  0  0  0  0  0  0  0  0  0  0  0
   33.7994   39.6689   57.0873 H   0  0  0  0  0  0  0  0  0  0  0  0
   34.4389   39.0765   54.7632 H   0  0  0  0  0  0  0  0  0  0  0  0
   34.0611   36.7473   53.9788 H   0  0  0  0  0  0  0  0  0  0  0  0
   33.0863   35.0975   55.5193 H   0  0  0  0  0  0  0  0  0  0  0  0
  1  2  1  0  0  0  0
  1 19  1  0  0  0  0
  1 20  1  0  0  0  0
  1 21  1  0  0  0  0
  2  3  1  0  0  0  0
  3 10  2  0  0  0  0
  3  4  1  0  0  0  0
  4  5  2  0  0  0  0
  4 22  1  0  0  0  0
  5  6  1  0  0  0  0
  5 23  1  0  0  0  0
  6  7  1  0  0  0  0
  6  9  2  0  0  0  0
  7  8  2  0  0  0  0
  7 24  1  0  0  0  0
  9 10  1  0  0  0  0
  9 25  1  0  0  0  0
 10 11  1  0  0  0  0
 11 12  1  0  0  0  0
 11 26  1  0  0  0  0
 11 27  1  0  0  0  0
 12 13  1  0  0  0  0
 13 18  2  0  0  0  0
 13 14  1  0  0  0  0
 14 15  2  0  0  0  0
 14 28  1  0  0  0  0
 15 16  1  0  0  0  0
 15 29  1  0  0  0  0
 16 17  2  0  0  0  0
 16 30  1  0  0  0  0
 17 18  1  0  0  0  0
 17 31  1  0  0  0  0
M  END
$$$$
