ZINC000000042954      none
 OpenBabel11202420153D

 46 47  0  0  0  0  0  0  0  0999 V2000
   33.1453   38.7652   56.9735 C   0  0  0  0  0  0  0  0  0  0  0  0
   32.5732   37.7708   57.9507 C   0  0  0  0  0  0  0  0  0  0  0  0
   31.9554   38.2134   59.1054 C   0  0  0  0  0  0  0  0  0  0  0  0
   31.4307   37.3013   60.0018 C   0  0  0  0  0  0  0  0  0  0  0  0
   31.5285   35.9463   59.7462 C   0  0  0  0  0  0  0  0  0  0  0  0
   30.8660   34.7835   60.8922 S   0  0  0  0  0  0  0  0  0  0  0  0
   29.8641   35.4717   61.6283 O   0  0  0  0  0  0  0  0  0  0  0  0
   30.6110   33.5952   60.1559 O   0  0  0  0  0  0  0  0  0  0  0  0
   32.0690   34.4171   61.9696 N   0  0  0  0  0  0  0  0  0  0  0  0
   32.6654   35.4747   62.7894 C   0  0  0  0  0  0  0  0  0  0  0  0
   31.5814   36.1235   63.6524 C   0  0  0  0  0  0  0  0  0  0  0  0
   32.1951   37.2113   64.4956 C   0  0  0  0  0  0  0  0  0  0  0  0
   33.3825   37.4446   64.4143 O   0  0  0  0  0  0  0  0  0  0  0  0
   31.4244   37.9250   65.3402 N   0  0  0  0  0  0  0  0  0  0  0  0
   32.0208   38.9826   66.1599 C   0  0  0  0  0  0  0  0  0  0  0  0
   32.4887   38.3927   67.4920 C   0  0  0  0  0  0  0  0  0  0  0  0
   33.1116   39.4972   68.3481 C   0  0  0  0  0  0  0  0  0  0  0  0
   32.0706   40.5873   68.6105 C   0  0  0  0  0  0  0  0  0  0  0  0
   31.6030   41.1772   67.2785 C   0  0  0  0  0  0  0  0  0  0  0  0
   30.9800   40.0727   66.4225 C   0  0  0  0  0  0  0  0  0  0  0  0
   32.1416   35.5038   58.5889 C   0  0  0  0  0  0  0  0  0  0  0  0
   32.6659   36.4159   57.6923 C   0  0  0  0  0  0  0  0  0  0  0  0
   34.1836   38.9726   57.2321 H   0  0  0  0  0  0  0  0  0  0  0  0
   33.0972   38.3529   55.9656 H   0  0  0  0  0  0  0  0  0  0  0  0
   32.5687   39.6892   57.0159 H   0  0  0  0  0  0  0  0  0  0  0  0
   31.8830   39.2719   59.3073 H   0  0  0  0  0  0  0  0  0  0  0  0
   30.9483   37.6472   60.9041 H   0  0  0  0  0  0  0  0  0  0  0  0
   32.3787   33.5022   62.0579 H   0  0  0  0  0  0  0  0  0  0  0  0
   33.4340   35.0460   63.4326 H   0  0  0  0  0  0  0  0  0  0  0  0
   33.1131   36.2281   62.1411 H   0  0  0  0  0  0  0  0  0  0  0  0
   30.8131   36.5522   63.0092 H   0  0  0  0  0  0  0  0  0  0  0  0
   31.1339   35.3701   64.3006 H   0  0  0  0  0  0  0  0  0  0  0  0
   30.4748   37.7384   65.4052 H   0  0  0  0  0  0  0  0  0  0  0  0
   32.8731   39.4129   65.6340 H   0  0  0  0  0  0  0  0  0  0  0  0
   31.6364   37.9623   68.0179 H   0  0  0  0  0  0  0  0  0  0  0  0
   33.2302   37.6160   67.3050 H   0  0  0  0  0  0  0  0  0  0  0  0
   33.9637   39.9276   67.8221 H   0  0  0  0  0  0  0  0  0  0  0  0
   33.4448   39.0770   69.2970 H   0  0  0  0  0  0  0  0  0  0  0  0
   32.5145   41.3742   69.2206 H   0  0  0  0  0  0  0  0  0  0  0  0
   31.2185   40.1569   69.1366 H   0  0  0  0  0  0  0  0  0  0  0  0
   32.4551   41.6076   66.7525 H   0  0  0  0  0  0  0  0  0  0  0  0
   30.8614   41.9539   67.4655 H   0  0  0  0  0  0  0  0  0  0  0  0
   30.6467   40.4929   65.4735 H   0  0  0  0  0  0  0  0  0  0  0  0
   30.1278   39.6424   66.9484 H   0  0  0  0  0  0  0  0  0  0  0  0
   32.2143   34.4453   58.3872 H   0  0  0  0  0  0  0  0  0  0  0  0
   33.1483   36.0701   56.7900 H   0  0  0  0  0  0  0  0  0  0  0  0
  1  2  1  0  0  0  0
  1 23  1  0  0  0  0
  1 24  1  0  0  0  0
  1 25  1  0  0  0  0
  2 22  2  0  0  0  0
  2  3  1  0  0  0  0
  3  4  2  0  0  0  0
  3 26  1  0  0  0  0
  4  5  1  0  0  0  0
  4 27  1  0  0  0  0
  5  6  1  0  0  0  0
  5 21  2  0  0  0  0
  6  7  2  0  0  0  0
  6  8  2  0  0  0  0
  6  9  1  0  0  0  0
  9 10  1  0  0  0  0
  9 28  1  0  0  0  0
 10 11  1  0  0  0  0
 10 29  1  0  0  0  0
 10 30  1  0  0  0  0
 11 12  1  0  0  0  0
 11 31  1  0  0  0  0
 11 32  1  0  0  0  0
 12 13  2  0  0  0  0
 12 14  1  0  0  0  0
 14 15  1  0  0  0  0
 14 33  1  0  0  0  0
 15 20  1  0  0  0  0
 15 16  1  0  0  0  0
 15 34  1  0  0  0  0
 16 17  1  0  0  0  0
 16 35  1  0  0  0  0
 16 36  1  0  0  0  0
 17 18  1  0  0  0  0
 17 37  1  0  0  0  0
 17 38  1  0  0  0  0
 18 19  1  0  0  0  0
 18 39  1  0  0  0  0
 18 40  1  0  0  0  0
 19 20  1  0  0  0  0
 19 41  1  0  0  0  0
 19 42  1  0  0  0  0
 20 43  1  0  0  0  0
 20 44  1  0  0  0  0
 21 22  1  0  0  0  0
 21 45  1  0  0  0  0
 22 46  1  0  0  0  0
M  END
$$$$
