ZINC000000008217      none
 OpenBabel11202420153D

 33 35  0  0  1  0  0  0  0  0999 V2000
   31.8693   35.2327   61.9871 O   0  0  0  0  0  0  0  0  0  0  0  0
   31.6510   36.4182   61.8237 C   0  0  0  0  0  0  0  0  0  0  0  0
   32.1231   37.0913   60.6054 C   0  0  0  0  0  0  0  0  0  0  0  0
   32.2736   36.4979   59.3931 C   0  0  0  0  0  0  0  0  0  0  0  0
   32.7612   37.5396   58.4900 C   0  0  0  0  0  0  0  0  0  0  0  0
   33.1048   37.5721   57.1362 C   0  0  0  0  0  0  0  0  0  0  0  0
   33.5390   38.7400   56.5757 C   0  0  0  0  0  0  0  0  0  0  0  0
   33.6462   39.8916   57.3436 C   0  0  0  0  0  0  0  0  0  0  0  0
   33.3068   39.8819   58.6791 C   0  0  0  0  0  0  0  0  0  0  0  0
   32.8624   38.7054   59.2717 C   0  0  0  0  0  0  0  0  0  0  0  0
   32.4729   38.3920   60.5226 O   0  0  0  0  0  0  0  0  0  0  0  0
   30.9763   37.1146   62.7600 N   0  0  0  0  0  0  0  0  0  0  0  0
   30.6442   38.5492   62.6905 C   0  0  0  0  0  0  0  0  0  0  0  0
   29.4058   38.7144   63.6060 C   0  0  0  0  0  0  0  0  0  0  0  0
   29.7316   37.7215   64.7530 C   0  0  0  0  0  0  0  0  0  0  0  0
   30.4441   36.5677   64.0165 C   0  0  2  0  0  0  0  0  0  0  0  0
   29.7346   35.7684   63.8020 H   0  0  0  0  0  0  0  0  0  0  0  0
   31.5898   36.0331   64.8780 C   0  0  0  0  0  0  0  0  0  0  0  0
   31.0630   35.5040   66.0964 O   0  0  0  0  0  0  0  0  0  0  0  0
   32.0735   35.4657   59.1461 H   0  0  0  0  0  0  0  0  0  0  0  0
   33.0278   36.6779   56.5354 H   0  0  0  0  0  0  0  0  0  0  0  0
   33.8049   38.7664   55.5292 H   0  0  0  0  0  0  0  0  0  0  0  0
   33.9952   40.8066   56.8881 H   0  0  0  0  0  0  0  0  0  0  0  0
   33.3901   40.7852   59.2652 H   0  0  0  0  0  0  0  0  0  0  0  0
   31.4743   39.1493   63.0634 H   0  0  0  0  0  0  0  0  0  0  0  0
   30.4017   38.8333   61.6664 H   0  0  0  0  0  0  0  0  0  0  0  0
   29.3310   39.7347   63.9820 H   0  0  0  0  0  0  0  0  0  0  0  0
   28.4932   38.4244   63.0851 H   0  0  0  0  0  0  0  0  0  0  0  0
   30.3934   38.1829   65.4861 H   0  0  0  0  0  0  0  0  0  0  0  0
   28.8167   37.3666   65.2274 H   0  0  0  0  0  0  0  0  0  0  0  0
   32.1146   35.2458   64.3369 H   0  0  0  0  0  0  0  0  0  0  0  0
   32.2835   36.8432   65.1035 H   0  0  0  0  0  0  0  0  0  0  0  0
   31.7348   35.1467   66.6931 H   0  0  0  0  0  0  0  0  0  0  0  0
  1  2  2  0  0  0  0
  2  3  1  0  0  0  0
  2 12  1  0  0  0  0
  3 11  1  0  0  0  0
  3  4  2  0  0  0  0
  4  5  1  0  0  0  0
  4 20  1  0  0  0  0
  5 10  2  0  0  0  0
  5  6  1  0  0  0  0
  6  7  2  0  0  0  0
  6 21  1  0  0  0  0
  7  8  1  0  0  0  0
  7 22  1  0  0  0  0
  8  9  2  0  0  0  0
  8 23  1  0  0  0  0
  9 10  1  0  0  0  0
  9 24  1  0  0  0  0
 10 11  1  0  0  0  0
 12 16  1  0  0  0  0
 12 13  1  0  0  0  0
 13 14  1  0  0  0  0
 13 25  1  0  0  0  0
 13 26  1  0  0  0  0
 14 15  1  0  0  0  0
 14 27  1  0  0  0  0
 14 28  1  0  0  0  0
 15 16  1  0  0  0  0
 15 29  1  0  0  0  0
 15 30  1  0  0  0  0
 16 17  1  6  0  0  0
 16 18  1  0  0  0  0
 18 19  1  0  0  0  0
 18 31  1  0  0  0  0
 18 32  1  0  0  0  0
 19 33  1  0  0  0  0
M  END
$$$$
