ZINC000000034315      none
 OpenBabel11202420153D

 35 37  0  0  0  0  0  0  0  0999 V2000
   32.3898   33.0069   62.3307 N   0  0  0  0  0  0  0  0  0  0  0  0
   31.8382   34.2210   62.6270 N   0  0  0  0  0  0  0  0  0  0  0  0
   32.1976   35.4012   61.8371 C   0  0  0  0  0  0  0  0  0  0  0  0
   31.8178   35.1701   60.3731 C   0  0  0  0  0  0  0  0  0  0  0  0
   32.1874   36.3842   59.5606 C   0  0  0  0  0  0  0  0  0  0  0  0
   32.5284   36.2372   58.2291 C   0  0  0  0  0  0  0  0  0  0  0  0
   32.8664   37.3605   57.4904 C   0  0  0  0  0  0  0  0  0  0  0  0
   32.8487   38.5953   58.1213 C   0  0  0  0  0  0  0  0  0  0  0  0
   32.4972   38.6646   59.4558 C   0  0  0  0  0  0  0  0  0  0  0  0
   32.1766   37.5751   60.1265 N   0  0  0  0  0  0  0  0  0  0  0  0
   30.9438   34.3354   63.6688 C   0  0  0  0  0  0  0  0  0  0  0  0
   29.8390   33.6614   63.6623 N   0  0  0  0  0  0  0  0  0  0  0  0
   29.0372   34.0656   65.0730 S   0  0  0  0  0  0  0  0  0  0  0  0
   27.8776   34.8031   64.7115 O   0  0  0  0  0  0  0  0  0  0  0  0
   29.0231   32.9131   65.9041 O   0  0  0  0  0  0  0  0  0  0  0  0
   30.2053   35.2070   65.7588 C   0  0  0  0  0  0  0  0  0  0  0  0
   30.2603   35.9585   66.8974 C   0  0  0  0  0  0  0  0  0  0  0  0
   31.3598   36.7719   67.1304 C   0  0  0  0  0  0  0  0  0  0  0  0
   32.3876   36.8111   66.2047 C   0  0  0  0  0  0  0  0  0  0  0  0
   32.3348   36.0542   65.0560 C   0  0  0  0  0  0  0  0  0  0  0  0
   31.2303   35.2259   64.8039 C   0  0  0  0  0  0  0  0  0  0  0  0
   32.9528   33.0598   61.4951 H   0  0  0  0  0  0  0  0  0  0  0  0
   32.9286   32.6551   63.1080 H   0  0  0  0  0  0  0  0  0  0  0  0
   31.6619   36.2707   62.2185 H   0  0  0  0  0  0  0  0  0  0  0  0
   33.2711   35.5749   61.9109 H   0  0  0  0  0  0  0  0  0  0  0  0
   32.3534   34.3008   59.9917 H   0  0  0  0  0  0  0  0  0  0  0  0
   30.7443   34.9966   60.2993 H   0  0  0  0  0  0  0  0  0  0  0  0
   32.5319   35.2596   57.7702 H   0  0  0  0  0  0  0  0  0  0  0  0
   33.1368   37.2760   56.4482 H   0  0  0  0  0  0  0  0  0  0  0  0
   33.1059   39.4915   57.5764 H   0  0  0  0  0  0  0  0  0  0  0  0
   32.4810   39.6224   59.9545 H   0  0  0  0  0  0  0  0  0  0  0  0
   29.4542   35.9166   67.6149 H   0  0  0  0  0  0  0  0  0  0  0  0
   31.4129   37.3707   68.0277 H   0  0  0  0  0  0  0  0  0  0  0  0
   33.2436   37.4439   66.3864 H   0  0  0  0  0  0  0  0  0  0  0  0
   33.1470   36.0980   64.3456 H   0  0  0  0  0  0  0  0  0  0  0  0
  1  2  1  0  0  0  0
  1 22  1  0  0  0  0
  1 23  1  0  0  0  0
  2  3  1  0  0  0  0
  2 11  1  0  0  0  0
  3  4  1  0  0  0  0
  3 24  1  0  0  0  0
  3 25  1  0  0  0  0
  4  5  1  0  0  0  0
  4 26  1  0  0  0  0
  4 27  1  0  0  0  0
  5 10  2  0  0  0  0
  5  6  1  0  0  0  0
  6  7  2  0  0  0  0
  6 28  1  0  0  0  0
  7  8  1  0  0  0  0
  7 29  1  0  0  0  0
  8  9  2  0  0  0  0
  8 30  1  0  0  0  0
  9 10  1  0  0  0  0
  9 31  1  0  0  0  0
 11 21  1  0  0  0  0
 11 12  2  0  0  0  0
 12 13  1  0  0  0  0
 13 14  2  0  0  0  0
 13 15  2  0  0  0  0
 13 16  1  0  0  0  0
 16 21  2  0  0  0  0
 16 17  1  0  0  0  0
 17 18  2  0  0  0  0
 17 32  1  0  0  0  0
 18 19  1  0  0  0  0
 18 33  1  0  0  0  0
 19 20  2  0  0  0  0
 19 34  1  0  0  0  0
 20 21  1  0  0  0  0
 20 35  1  0  0  0  0
M  END
$$$$
