ZINC000000030415      none
 OpenBabel11202420163D

 37 38  0  0  0  0  0  0  0  0999 V2000
   29.1610   36.1911   64.0164 C   0  0  0  0  0  0  0  0  0  0  0  0
   30.6118   36.1866   64.2202 N   0  0  0  0  0  0  0  0  0  0  0  0
   31.1831   36.7769   65.4332 C   0  0  0  0  0  0  0  0  0  0  0  0
   31.6061   35.5141   63.0792 S   0  0  0  0  0  0  0  0  0  0  0  0
   31.1271   34.1948   62.8572 O   0  0  0  0  0  0  0  0  0  0  0  0
   32.9367   35.7994   63.4883 O   0  0  0  0  0  0  0  0  0  0  0  0
   31.3630   36.3438   61.6669 N   0  0  0  0  0  0  0  0  0  0  0  0
   31.6177   37.7901   61.5877 C   0  0  0  0  0  0  0  0  0  0  0  0
   32.5222   38.0597   60.3803 C   0  0  0  0  0  0  0  0  0  0  0  0
   31.9187   37.4685   59.1786 N   0  0  0  0  0  0  0  0  0  0  0  0
   32.6283   37.8316   58.0317 C   0  0  0  0  0  0  0  0  0  0  0  0
   32.7581   39.1714   57.6884 C   0  0  0  0  0  0  0  0  0  0  0  0
   33.4645   39.5272   56.5564 C   0  0  0  0  0  0  0  0  0  0  0  0
   34.0334   38.5510   55.7591 C   0  0  0  0  0  0  0  0  0  0  0  0
   33.9016   37.2160   56.0951 C   0  0  0  0  0  0  0  0  0  0  0  0
   33.2010   36.8535   57.2286 C   0  0  0  0  0  0  0  0  0  0  0  0
   31.8194   36.0076   59.2957 C   0  0  0  0  0  0  0  0  0  0  0  0
   30.8862   35.6539   60.4586 C   0  0  0  0  0  0  0  0  0  0  0  0
   28.7318   35.2836   64.4409 H   0  0  0  0  0  0  0  0  0  0  0  0
   28.7279   37.0623   64.5079 H   0  0  0  0  0  0  0  0  0  0  0  0
   28.9442   36.2309   62.9490 H   0  0  0  0  0  0  0  0  0  0  0  0
   31.3942   37.8320   65.2591 H   0  0  0  0  0  0  0  0  0  0  0  0
   30.4727   36.6793   66.2541 H   0  0  0  0  0  0  0  0  0  0  0  0
   32.1074   36.2587   65.6890 H   0  0  0  0  0  0  0  0  0  0  0  0
   32.1135   38.1251   62.4986 H   0  0  0  0  0  0  0  0  0  0  0  0
   30.6742   38.3219   61.4642 H   0  0  0  0  0  0  0  0  0  0  0  0
   32.6319   39.1352   60.2409 H   0  0  0  0  0  0  0  0  0  0  0  0
   33.5015   37.6133   60.5528 H   0  0  0  0  0  0  0  0  0  0  0  0
   32.3103   39.9341   58.3083 H   0  0  0  0  0  0  0  0  0  0  0  0
   33.5693   40.5688   56.2911 H   0  0  0  0  0  0  0  0  0  0  0  0
   34.5821   38.8316   54.8723 H   0  0  0  0  0  0  0  0  0  0  0  0
   34.3475   36.4560   55.4704 H   0  0  0  0  0  0  0  0  0  0  0  0
   33.0982   35.8108   57.4902 H   0  0  0  0  0  0  0  0  0  0  0  0
   31.4194   35.5947   58.3697 H   0  0  0  0  0  0  0  0  0  0  0  0
   32.8086   35.5897   59.4834 H   0  0  0  0  0  0  0  0  0  0  0  0
   29.8723   35.9803   60.2266 H   0  0  0  0  0  0  0  0  0  0  0  0
   30.8983   34.5765   60.6232 H   0  0  0  0  0  0  0  0  0  0  0  0
  1  2  1  0  0  0  0
  1 19  1  0  0  0  0
  1 20  1  0  0  0  0
  1 21  1  0  0  0  0
  2  3  1  0  0  0  0
  2  4  1  0  0  0  0
  3 22  1  0  0  0  0
  3 23  1  0  0  0  0
  3 24  1  0  0  0  0
  4  5  2  0  0  0  0
  4  6  2  0  0  0  0
  4  7  1  0  0  0  0
  7 18  1  0  0  0  0
  7  8  1  0  0  0  0
  8  9  1  0  0  0  0
  8 25  1  0  0  0  0
  8 26  1  0  0  0  0
  9 10  1  0  0  0  0
  9 27  1  0  0  0  0
  9 28  1  0  0  0  0
 10 11  1  0  0  0  0
 10 17  1  0  0  0  0
 11 16  2  0  0  0  0
 11 12  1  0  0  0  0
 12 13  2  0  0  0  0
 12 29  1  0  0  0  0
 13 14  1  0  0  0  0
 13 30  1  0  0  0  0
 14 15  2  0  0  0  0
 14 31  1  0  0  0  0
 15 16  1  0  0  0  0
 15 32  1  0  0  0  0
 16 33  1  0  0  0  0
 17 18  1  0  0  0  0
 17 34  1  0  0  0  0
 17 35  1  0  0  0  0
 18 36  1  0  0  0  0
 18 37  1  0  0  0  0
M  END
$$$$
