ZINC000000040021      none
 OpenBabel11202420153D

 26 26  0  0  0  0  0  0  0  0999 V2000
   34.3035   32.2230   53.4711 C   0  0  0  0  0  0  0  0  0  0  0  0
   34.4002   33.5826   53.9721 O   0  0  0  0  0  0  0  0  0  0  0  0
   33.5103   33.9521   54.9133 C   0  0  0  0  0  0  0  0  0  0  0  0
   32.6764   33.1606   55.3048 O   0  0  0  0  0  0  0  0  0  0  0  0
   33.5486   35.3213   55.4699 C   0  0  0  0  0  0  0  0  0  0  0  0
   34.0044   36.3816   54.6908 C   0  0  0  0  0  0  0  0  0  0  0  0
   34.0379   37.6600   55.2153 C   0  0  0  0  0  0  0  0  0  0  0  0
   33.6206   37.8957   56.5134 C   0  0  0  0  0  0  0  0  0  0  0  0
   33.1650   36.8556   57.3016 C   0  0  0  0  0  0  0  0  0  0  0  0
   32.7206   37.1181   58.6889 N   0  0  0  0  0  0  0  0  0  0  0  0
   32.7564   38.2505   59.1360 O   0  0  0  0  0  0  0  0  0  0  0  0
   32.3144   36.2024   59.3818 O   0  0  0  0  0  0  0  0  0  0  0  0
   33.1294   35.5602   56.7923 C   0  0  0  0  0  0  0  0  0  0  0  0
   32.6486   34.4433   57.6334 C   0  0  0  0  0  0  0  0  0  0  0  0
   33.4324   33.8191   58.3198 O   0  0  0  0  0  0  0  0  0  0  0  0
   31.3415   34.1181   57.6385 O   0  0  0  0  0  0  0  0  0  0  0  0
   30.9409   33.0108   58.4879 C   0  0  0  0  0  0  0  0  0  0  0  0
   33.3219   32.0703   53.0222 H   0  0  0  0  0  0  0  0  0  0  0  0
   35.0762   32.0567   52.7206 H   0  0  0  0  0  0  0  0  0  0  0  0
   34.4396   31.5219   54.2944 H   0  0  0  0  0  0  0  0  0  0  0  0
   34.3313   36.2051   53.6767 H   0  0  0  0  0  0  0  0  0  0  0  0
   34.3924   38.4800   54.6084 H   0  0  0  0  0  0  0  0  0  0  0  0
   33.6507   38.8986   56.9129 H   0  0  0  0  0  0  0  0  0  0  0  0
   29.8659   32.8546   58.3983 H   0  0  0  0  0  0  0  0  0  0  0  0
   31.4663   32.1072   58.1787 H   0  0  0  0  0  0  0  0  0  0  0  0
   31.1899   33.2393   59.5241 H   0  0  0  0  0  0  0  0  0  0  0  0
  1  2  1  0  0  0  0
  1 18  1  0  0  0  0
  1 19  1  0  0  0  0
  1 20  1  0  0  0  0
  2  3  1  0  0  0  0
  3  4  2  0  0  0  0
  3  5  1  0  0  0  0
  5 13  2  0  0  0  0
  5  6  1  0  0  0  0
  6  7  2  0  0  0  0
  6 21  1  0  0  0  0
  7  8  1  0  0  0  0
  7 22  1  0  0  0  0
  8  9  2  0  0  0  0
  8 23  1  0  0  0  0
  9 10  1  0  0  0  0
  9 13  1  0  0  0  0
 10 11  2  0  0  0  0
 10 12  2  0  0  0  0
 13 14  1  0  0  0  0
 14 15  2  0  0  0  0
 14 16  1  0  0  0  0
 16 17  1  0  0  0  0
 17 24  1  0  0  0  0
 17 25  1  0  0  0  0
 17 26  1  0  0  0  0
M  END
$$$$
