ZINC000000000975      none
 OpenBabel11202420153D

 30 32  0  0  0  0  0  0  0  0999 V2000
   32.9731   34.3447   55.4903 Cl  0  0  0  0  0  0  0  0  0  0  0  0
   32.6044   35.0329   57.0408 C   0  0  0  0  0  0  0  0  0  0  0  0
   31.9898   34.2619   58.0118 C   0  0  0  0  0  0  0  0  0  0  0  0
   31.6914   34.8112   59.2443 C   0  0  0  0  0  0  0  0  0  0  0  0
   32.0171   36.1278   59.5120 C   0  0  0  0  0  0  0  0  0  0  0  0
   31.6975   36.7240   60.8587 C   0  0  0  0  0  0  0  0  0  0  0  0
   30.7647   37.9236   60.6813 C   0  0  0  0  0  0  0  0  0  0  0  0
   30.0825   38.2032   61.9473 N   0  0  0  0  0  0  0  0  0  0  0  0
   28.9117   37.6892   62.3623 C   0  0  0  0  0  0  0  0  0  0  0  0
   28.6461   38.1857   63.5432 N   0  0  0  0  0  0  0  0  0  0  0  0
   29.6198   39.0166   63.9135 C   0  0  0  0  0  0  0  0  0  0  0  0
   30.5249   39.0563   62.9714 N   0  0  0  0  0  0  0  0  0  0  0  0
   32.9123   37.1475   61.4999 O   0  0  0  0  0  0  0  0  0  0  0  0
   32.7046   36.8787   62.9053 C   0  0  0  0  0  0  0  0  0  0  0  0
   31.8861   35.5644   62.8545 C   0  0  0  0  0  0  0  0  0  0  0  0
   31.0627   35.7380   61.6835 O   0  0  0  0  0  0  0  0  0  0  0  0
   32.6316   36.8996   58.5422 C   0  0  0  0  0  0  0  0  0  0  0  0
   33.0345   38.5547   58.8762 Cl  0  0  0  0  0  0  0  0  0  0  0  0
   32.9253   36.3519   57.3061 C   0  0  0  0  0  0  0  0  0  0  0  0
   31.7391   33.2320   57.8047 H   0  0  0  0  0  0  0  0  0  0  0  0
   31.2075   34.2105   60.0001 H   0  0  0  0  0  0  0  0  0  0  0  0
   31.3467   38.7953   60.3820 H   0  0  0  0  0  0  0  0  0  0  0  0
   30.0256   37.6988   59.9123 H   0  0  0  0  0  0  0  0  0  0  0  0
   28.2976   36.9883   61.8163 H   0  0  0  0  0  0  0  0  0  0  0  0
   29.6571   39.5649   64.8433 H   0  0  0  0  0  0  0  0  0  0  0  0
   32.1318   37.6772   63.3769 H   0  0  0  0  0  0  0  0  0  0  0  0
   33.6545   36.7271   63.4182 H   0  0  0  0  0  0  0  0  0  0  0  0
   31.2693   35.4600   63.7471 H   0  0  0  0  0  0  0  0  0  0  0  0
   32.5432   34.7025   62.7389 H   0  0  0  0  0  0  0  0  0  0  0  0
   33.4053   36.9539   56.5488 H   0  0  0  0  0  0  0  0  0  0  0  0
  1  2  1  0  0  0  0
  2 19  2  0  0  0  0
  2  3  1  0  0  0  0
  3  4  2  0  0  0  0
  3 20  1  0  0  0  0
  4  5  1  0  0  0  0
  4 21  1  0  0  0  0
  5  6  1  0  0  0  0
  5 17  2  0  0  0  0
  6 16  1  0  0  0  0
  6  7  1  0  0  0  0
  6 13  1  0  0  0  0
  7  8  1  0  0  0  0
  7 22  1  0  0  0  0
  7 23  1  0  0  0  0
  8 12  1  0  0  0  0
  8  9  1  0  0  0  0
  9 10  2  0  0  0  0
  9 24  1  0  0  0  0
 10 11  1  0  0  0  0
 11 12  2  0  0  0  0
 11 25  1  0  0  0  0
 13 14  1  0  0  0  0
 14 15  1  0  0  0  0
 14 26  1  0  0  0  0
 14 27  1  0  0  0  0
 15 16  1  0  0  0  0
 15 28  1  0  0  0  0
 15 29  1  0  0  0  0
 17 18  1  0  0  0  0
 17 19  1  0  0  0  0
 19 30  1  0  0  0  0
M  END
$$$$
