ZINC000000002773      none
 OpenBabel11202420153D

 37 40  0  0  1  0  0  0  0  0999 V2000
   28.9061   36.8224   66.3016 C   0  0  0  0  0  0  0  0  0  0  0  0
   28.9744   37.9136   65.3810 O   0  0  0  0  0  0  0  0  0  0  0  0
   29.7205   37.7291   64.2603 C   0  0  0  0  0  0  0  0  0  0  0  0
   29.8312   38.7471   63.3242 C   0  0  0  0  0  0  0  0  0  0  0  0
   30.5903   38.5574   62.1858 C   0  0  0  0  0  0  0  0  0  0  0  0
   31.2398   37.3543   61.9790 C   0  0  0  0  0  0  0  0  0  0  0  0
   32.0673   37.1502   60.7361 C   0  0  1  0  0  0  0  0  0  0  0  0
   33.1000   36.9383   61.0130 H   0  0  0  0  0  0  0  0  0  0  0  0
   31.4986   35.9804   59.9226 C   0  0  0  0  0  0  0  0  0  0  0  0
   32.3615   35.7452   58.8091 O   0  0  0  0  0  0  0  0  0  0  0  0
   32.7253   36.8127   58.0500 C   0  0  0  0  0  0  0  0  0  0  0  0
   33.2532   36.5758   56.7849 C   0  0  0  0  0  0  0  0  0  0  0  0
   33.6419   37.6328   55.9818 C   0  0  0  0  0  0  0  0  0  0  0  0
   33.5027   38.9398   56.4433 C   0  0  0  0  0  0  0  0  0  0  0  0
   32.9757   39.1718   57.7011 C   0  0  0  0  0  0  0  0  0  0  0  0
   32.5858   38.1118   58.5049 C   0  0  0  0  0  0  0  0  0  0  0  0
   32.0138   38.4096   59.8679 C   0  0  0  0  0  0  0  0  0  0  0  0
   33.9526   39.7938   55.4768 O   0  0  0  0  0  0  0  0  0  0  0  0
   34.7445   38.9846   54.5873 C   0  0  0  0  0  0  0  0  0  0  0  0
   34.1778   37.6683   54.7267 O   0  0  0  0  0  0  0  0  0  0  0  0
   31.1265   36.3364   62.9077 C   0  0  0  0  0  0  0  0  0  0  0  0
   30.3732   36.5231   64.0505 C   0  0  0  0  0  0  0  0  0  0  0  0
   29.9090   36.5806   66.6536 H   0  0  0  0  0  0  0  0  0  0  0  0
   28.2808   37.1013   67.1496 H   0  0  0  0  0  0  0  0  0  0  0  0
   28.4765   35.9534   65.8035 H   0  0  0  0  0  0  0  0  0  0  0  0
   29.3245   39.6871   63.4855 H   0  0  0  0  0  0  0  0  0  0  0  0
   30.6766   39.3494   61.4566 H   0  0  0  0  0  0  0  0  0  0  0  0
   31.4522   35.0877   60.5461 H   0  0  0  0  0  0  0  0  0  0  0  0
   30.4998   36.2323   59.5662 H   0  0  0  0  0  0  0  0  0  0  0  0
   33.3596   35.5620   56.4281 H   0  0  0  0  0  0  0  0  0  0  0  0
   32.8674   40.1850   58.0591 H   0  0  0  0  0  0  0  0  0  0  0  0
   30.9786   38.7345   59.7636 H   0  0  0  0  0  0  0  0  0  0  0  0
   32.5964   39.2007   60.3401 H   0  0  0  0  0  0  0  0  0  0  0  0
   35.7897   38.9862   54.8963 H   0  0  0  0  0  0  0  0  0  0  0  0
   34.6494   39.3356   53.5597 H   0  0  0  0  0  0  0  0  0  0  0  0
   31.6308   35.3959   62.7415 H   0  0  0  0  0  0  0  0  0  0  0  0
   30.2886   35.7292   64.7777 H   0  0  0  0  0  0  0  0  0  0  0  0
  1  2  1  0  0  0  0
  1 23  1  0  0  0  0
  1 24  1  0  0  0  0
  1 25  1  0  0  0  0
  2  3  1  0  0  0  0
  3 22  2  0  0  0  0
  3  4  1  0  0  0  0
  4  5  2  0  0  0  0
  4 26  1  0  0  0  0
  5  6  1  0  0  0  0
  5 27  1  0  0  0  0
  6  7  1  0  0  0  0
  6 21  2  0  0  0  0
  7  8  1  1  0  0  0
  7 17  1  0  0  0  0
  7  9  1  0  0  0  0
  9 10  1  0  0  0  0
  9 28  1  0  0  0  0
  9 29  1  0  0  0  0
 10 11  1  0  0  0  0
 11 16  2  0  0  0  0
 11 12  1  0  0  0  0
 12 13  2  0  0  0  0
 12 30  1  0  0  0  0
 13 20  1  0  0  0  0
 13 14  1  0  0  0  0
 14 15  2  0  0  0  0
 14 18  1  0  0  0  0
 15 16  1  0  0  0  0
 15 31  1  0  0  0  0
 16 17  1  0  0  0  0
 17 32  1  0  0  0  0
 17 33  1  0  0  0  0
 18 19  1  0  0  0  0
 19 20  1  0  0  0  0
 19 34  1  0  0  0  0
 19 35  1  0  0  0  0
 21 22  1  0  0  0  0
 21 36  1  0  0  0  0
 22 37  1  0  0  0  0
M  END
$$$$
