ZINC000000057978      none
 OpenBabel11202420153D

 34 36  0  0  0  0  0  0  0  0999 V2000
   29.1188   32.5195   65.2705 C   0  0  0  0  0  0  0  0  0  0  0  0
   28.2340   33.6256   65.8492 C   0  0  0  0  0  0  0  0  0  0  0  0
   29.0390   34.7635   66.1641 O   0  0  0  0  0  0  0  0  0  0  0  0
   29.7199   35.3391   65.1404 C   0  0  0  0  0  0  0  0  0  0  0  0
   30.9331   35.9785   65.3892 C   0  0  0  0  0  0  0  0  0  0  0  0
   31.6252   36.5654   64.3717 C   0  0  0  0  0  0  0  0  0  0  0  0
   31.1220   36.5175   63.0627 C   0  0  0  0  0  0  0  0  0  0  0  0
   31.8410   37.1213   61.9997 C   0  0  0  0  0  0  0  0  0  0  0  0
   31.3229   37.0634   60.7339 C   0  0  0  0  0  0  0  0  0  0  0  0
   32.0447   37.6819   59.5974 C   0  0  0  0  0  0  0  0  0  0  0  0
   32.4601   36.8973   58.5219 C   0  0  0  0  0  0  0  0  0  0  0  0
   33.1277   37.4793   57.4640 C   0  0  0  0  0  0  0  0  0  0  0  0
   33.3950   38.8376   57.4738 C   0  0  0  0  0  0  0  0  0  0  0  0
   34.3174   39.6267   56.0239 Br  0  0  0  0  0  0  0  0  0  0  0  0
   32.9892   39.6204   58.5411 C   0  0  0  0  0  0  0  0  0  0  0  0
   32.3163   39.0498   59.6019 C   0  0  0  0  0  0  0  0  0  0  0  0
   30.0447   36.3806   60.5194 C   0  0  0  0  0  0  0  0  0  0  0  0
   29.5698   36.3199   59.4001 O   0  0  0  0  0  0  0  0  0  0  0  0
   29.3948   35.8217   61.5541 O   0  0  0  0  0  0  0  0  0  0  0  0
   29.8980   35.8730   62.8069 C   0  0  0  0  0  0  0  0  0  0  0  0
   29.2045   35.2861   63.8562 C   0  0  0  0  0  0  0  0  0  0  0  0
   29.6070   32.8809   64.3654 H   0  0  0  0  0  0  0  0  0  0  0  0
   29.8747   32.2381   66.0036 H   0  0  0  0  0  0  0  0  0  0  0  0
   28.5048   31.6515   65.0303 H   0  0  0  0  0  0  0  0  0  0  0  0
   27.7458   33.2642   66.7542 H   0  0  0  0  0  0  0  0  0  0  0  0
   27.4780   33.9071   65.1161 H   0  0  0  0  0  0  0  0  0  0  0  0
   31.3250   36.0134   66.3951 H   0  0  0  0  0  0  0  0  0  0  0  0
   32.5624   37.0634   64.5723 H   0  0  0  0  0  0  0  0  0  0  0  0
   32.7814   37.6187   62.1858 H   0  0  0  0  0  0  0  0  0  0  0  0
   32.2561   35.8368   58.5152 H   0  0  0  0  0  0  0  0  0  0  0  0
   33.4463   36.8734   56.6286 H   0  0  0  0  0  0  0  0  0  0  0  0
   33.2000   40.6796   58.5435 H   0  0  0  0  0  0  0  0  0  0  0  0
   32.0001   39.6614   60.4339 H   0  0  0  0  0  0  0  0  0  0  0  0
   28.2640   34.7884   63.6714 H   0  0  0  0  0  0  0  0  0  0  0  0
  1  2  1  0  0  0  0
  1 22  1  0  0  0  0
  1 23  1  0  0  0  0
  1 24  1  0  0  0  0
  2  3  1  0  0  0  0
  2 25  1  0  0  0  0
  2 26  1  0  0  0  0
  3  4  1  0  0  0  0
  4 21  2  0  0  0  0
  4  5  1  0  0  0  0
  5  6  2  0  0  0  0
  5 27  1  0  0  0  0
  6  7  1  0  0  0  0
  6 28  1  0  0  0  0
  7 20  2  0  0  0  0
  7  8  1  0  0  0  0
  8  9  2  0  0  0  0
  8 29  1  0  0  0  0
  9 10  1  0  0  0  0
  9 17  1  0  0  0  0
 10 16  2  0  0  0  0
 10 11  1  0  0  0  0
 11 12  2  0  0  0  0
 11 30  1  0  0  0  0
 12 13  1  0  0  0  0
 12 31  1  0  0  0  0
 13 14  1  0  0  0  0
 13 15  2  0  0  0  0
 15 16  1  0  0  0  0
 15 32  1  0  0  0  0
 16 33  1  0  0  0  0
 17 18  2  0  0  0  0
 17 19  1  0  0  0  0
 19 20  1  0  0  0  0
 20 21  1  0  0  0  0
 21 34  1  0  0  0  0
M  END
$$$$
