ZINC000000035220      none
 OpenBabel11202420153D

 33 35  0  0  0  0  0  0  0  0999 V2000
   34.1882   36.6562   53.7737 C   0  0  0  0  0  0  0  0  0  0  0  0
   34.2428   37.9818   54.4885 C   0  0  0  0  0  0  0  0  0  0  0  0
   34.6433   38.9677   53.9075 O   0  0  0  0  0  0  0  0  0  0  0  0
   33.8102   38.0794   55.8919 C   0  0  0  0  0  0  0  0  0  0  0  0
   33.8592   39.3086   56.5581 C   0  0  0  0  0  0  0  0  0  0  0  0
   33.4526   39.3963   57.8730 C   0  0  0  0  0  0  0  0  0  0  0  0
   32.9956   38.2728   58.5375 C   0  0  0  0  0  0  0  0  0  0  0  0
   32.9475   37.0450   57.8872 C   0  0  0  0  0  0  0  0  0  0  0  0
   32.4894   35.9118   58.5665 N   0  0  0  0  0  0  0  0  0  0  0  0
   31.5522   36.0411   59.5697 C   0  0  0  0  0  0  0  0  0  0  0  0
   30.6798   36.9967   59.5340 N   0  0  0  0  0  0  0  0  0  0  0  0
   29.7359   36.8185   60.9027 S   0  0  0  0  0  0  0  0  0  0  0  0
   30.0070   37.9206   61.7577 O   0  0  0  0  0  0  0  0  0  0  0  0
   28.4341   36.4372   60.4798 O   0  0  0  0  0  0  0  0  0  0  0  0
   30.5091   35.3900   61.6095 C   0  0  0  0  0  0  0  0  0  0  0  0
   30.3021   34.6416   62.7325 C   0  0  0  0  0  0  0  0  0  0  0  0
   31.1199   33.5511   62.9909 C   0  0  0  0  0  0  0  0  0  0  0  0
   32.1361   33.2359   62.1060 C   0  0  0  0  0  0  0  0  0  0  0  0
   32.3468   33.9885   60.9728 C   0  0  0  0  0  0  0  0  0  0  0  0
   31.5256   35.0916   60.6925 C   0  0  0  0  0  0  0  0  0  0  0  0
   33.3483   36.9448   56.5642 C   0  0  0  0  0  0  0  0  0  0  0  0
   33.1602   36.2938   53.7583 H   0  0  0  0  0  0  0  0  0  0  0  0
   34.5453   36.7796   52.7513 H   0  0  0  0  0  0  0  0  0  0  0  0
   34.8194   35.9361   54.2946 H   0  0  0  0  0  0  0  0  0  0  0  0
   34.2151   40.1884   56.0429 H   0  0  0  0  0  0  0  0  0  0  0  0
   33.4915   40.3459   58.3858 H   0  0  0  0  0  0  0  0  0  0  0  0
   32.6791   38.3486   59.5673 H   0  0  0  0  0  0  0  0  0  0  0  0
   32.8308   35.0347   58.3318 H   0  0  0  0  0  0  0  0  0  0  0  0
   29.5061   34.8972   63.4160 H   0  0  0  0  0  0  0  0  0  0  0  0
   30.9649   32.9527   63.8765 H   0  0  0  0  0  0  0  0  0  0  0  0
   32.7727   32.3870   62.3073 H   0  0  0  0  0  0  0  0  0  0  0  0
   33.1448   33.7264   60.2940 H   0  0  0  0  0  0  0  0  0  0  0  0
   33.3077   35.9927   56.0562 H   0  0  0  0  0  0  0  0  0  0  0  0
  1  2  1  0  0  0  0
  1 22  1  0  0  0  0
  1 23  1  0  0  0  0
  1 24  1  0  0  0  0
  2  3  2  0  0  0  0
  2  4  1  0  0  0  0
  4 21  2  0  0  0  0
  4  5  1  0  0  0  0
  5  6  2  0  0  0  0
  5 25  1  0  0  0  0
  6  7  1  0  0  0  0
  6 26  1  0  0  0  0
  7  8  2  0  0  0  0
  7 27  1  0  0  0  0
  8  9  1  0  0  0  0
  8 21  1  0  0  0  0
  9 10  1  0  0  0  0
  9 28  1  0  0  0  0
 10 20  1  0  0  0  0
 10 11  2  0  0  0  0
 11 12  1  0  0  0  0
 12 13  2  0  0  0  0
 12 14  2  0  0  0  0
 12 15  1  0  0  0  0
 15 20  2  0  0  0  0
 15 16  1  0  0  0  0
 16 17  2  0  0  0  0
 16 29  1  0  0  0  0
 17 18  1  0  0  0  0
 17 30  1  0  0  0  0
 18 19  2  0  0  0  0
 18 31  1  0  0  0  0
 19 20  1  0  0  0  0
 19 32  1  0  0  0  0
 21 33  1  0  0  0  0
M  END
$$$$
