ZINC000000046781      none
 OpenBabel11202420153D

 37 39  0  0  1  0  0  0  0  0999 V2000
   34.2736   37.4761   65.7402 N   0  0  0  0  0  0  0  0  0  0  0  0
   33.3568   36.8066   65.7815 C   0  0  0  0  0  0  0  0  0  0  0  0
   32.2011   35.9627   65.8333 C   0  0  0  0  0  0  0  0  0  0  0  0
   31.7619   35.4466   67.0549 C   0  0  0  0  0  0  0  0  0  0  0  0
   30.6516   34.6312   67.0974 C   0  0  0  0  0  0  0  0  0  0  0  0
   29.9647   34.3236   65.9343 C   0  0  0  0  0  0  0  0  0  0  0  0
   30.3841   34.8302   64.7203 C   0  0  0  0  0  0  0  0  0  0  0  0
   31.4998   35.6535   64.6582 C   0  0  0  0  0  0  0  0  0  0  0  0
   31.9249   36.1660   63.4335 N   0  0  0  0  0  0  0  0  0  0  0  0
   31.7054   35.4712   62.2996 C   0  0  0  0  0  0  0  0  0  0  0  0
   31.1426   34.3978   62.3454 O   0  0  0  0  0  0  0  0  0  0  0  0
   32.1593   36.0280   60.9749 C   0  0  0  0  0  0  0  0  0  0  0  0
   31.0405   36.8770   60.3682 C   0  0  2  0  0  0  0  0  0  0  0  0
   30.0799   36.3916   60.5405 H   0  0  0  0  0  0  0  0  0  0  0  0
   31.2643   37.0254   58.9227 N   0  0  0  0  0  0  0  0  0  0  0  0
   32.2185   37.9595   58.4949 C   0  0  0  0  0  0  0  0  0  0  0  0
   32.9062   37.7799   57.3075 C   0  0  0  0  0  0  0  0  0  0  0  0
   33.8358   38.7215   56.9032 C   0  0  0  0  0  0  0  0  0  0  0  0
   34.0777   39.8382   57.6824 C   0  0  0  0  0  0  0  0  0  0  0  0
   33.3963   40.0216   58.8715 C   0  0  0  0  0  0  0  0  0  0  0  0
   32.4662   39.0815   59.2866 C   0  0  0  0  0  0  0  0  0  0  0  0
   31.7844   39.2405   60.4984 N   0  0  0  0  0  0  0  0  0  0  0  0
   31.0383   38.2417   61.0094 C   0  0  0  0  0  0  0  0  0  0  0  0
   30.3577   38.4409   61.9935 O   0  0  0  0  0  0  0  0  0  0  0  0
   32.2940   35.6833   67.9644 H   0  0  0  0  0  0  0  0  0  0  0  0
   30.3157   34.2294   68.0420 H   0  0  0  0  0  0  0  0  0  0  0  0
   29.0955   33.6840   65.9775 H   0  0  0  0  0  0  0  0  0  0  0  0
   29.8431   34.5858   63.8180 H   0  0  0  0  0  0  0  0  0  0  0  0
   32.3749   37.0245   63.3968 H   0  0  0  0  0  0  0  0  0  0  0  0
   33.0442   36.6466   61.1247 H   0  0  0  0  0  0  0  0  0  0  0  0
   32.3999   35.2073   60.2991 H   0  0  0  0  0  0  0  0  0  0  0  0
   30.7664   36.4921   58.2835 H   0  0  0  0  0  0  0  0  0  0  0  0
   32.7178   36.9081   56.6985 H   0  0  0  0  0  0  0  0  0  0  0  0
   34.3744   38.5838   55.9773 H   0  0  0  0  0  0  0  0  0  0  0  0
   34.8023   40.5712   57.3601 H   0  0  0  0  0  0  0  0  0  0  0  0
   33.5882   40.8960   59.4757 H   0  0  0  0  0  0  0  0  0  0  0  0
   31.8493   40.0817   60.9772 H   0  0  0  0  0  0  0  0  0  0  0  0
  1  2  3  0  0  0  0
  2  3  1  0  0  0  0
  3  8  2  0  0  0  0
  3  4  1  0  0  0  0
  4  5  2  0  0  0  0
  4 25  1  0  0  0  0
  5  6  1  0  0  0  0
  5 26  1  0  0  0  0
  6  7  2  0  0  0  0
  6 27  1  0  0  0  0
  7  8  1  0  0  0  0
  7 28  1  0  0  0  0
  8  9  1  0  0  0  0
  9 10  1  0  0  0  0
  9 29  1  0  0  0  0
 10 11  2  0  0  0  0
 10 12  1  0  0  0  0
 12 13  1  0  0  0  0
 12 30  1  0  0  0  0
 12 31  1  0  0  0  0
 13 14  1  1  0  0  0
 13 23  1  0  0  0  0
 13 15  1  0  0  0  0
 15 16  1  0  0  0  0
 15 32  1  0  0  0  0
 16 21  2  0  0  0  0
 16 17  1  0  0  0  0
 17 18  2  0  0  0  0
 17 33  1  0  0  0  0
 18 19  1  0  0  0  0
 18 34  1  0  0  0  0
 19 20  2  0  0  0  0
 19 35  1  0  0  0  0
 20 21  1  0  0  0  0
 20 36  1  0  0  0  0
 21 22  1  0  0  0  0
 22 23  1  0  0  0  0
 22 37  1  0  0  0  0
 23 24  2  0  0  0  0
M  END
$$$$
