ZINC000000001553      none
 OpenBabel11202420153D

 30 32  0  0  0  0  0  0  0  0999 V2000
   30.1808   35.1913   64.4502 O   0  0  0  0  0  0  0  0  0  0  0  0
   30.5609   35.6170   63.3796 C   0  0  0  0  0  0  0  0  0  0  0  0
   29.9264   36.8499   62.7850 C   0  0  0  0  0  0  0  0  0  0  0  0
   30.9959   37.6591   62.0484 C   0  0  0  0  0  0  0  0  0  0  0  0
   31.8112   36.7439   61.1736 C   0  0  0  0  0  0  0  0  0  0  0  0
   32.3419   37.2483   59.8941 C   0  0  0  0  0  0  0  0  0  0  0  0
   32.5353   36.3733   58.8222 C   0  0  0  0  0  0  0  0  0  0  0  0
   33.0258   36.8497   57.6261 C   0  0  0  0  0  0  0  0  0  0  0  0
   33.3402   38.1965   57.4889 C   0  0  0  0  0  0  0  0  0  0  0  0
   33.8446   38.6757   56.2730 N   0  0  0  0  0  0  0  0  0  0  0  0
   34.0841   37.9378   55.1425 C   0  0  0  0  0  0  0  0  0  0  0  0
   34.5597   38.7897   54.2143 C   0  0  0  0  0  0  0  0  0  0  0  0
   34.6198   40.0133   54.7604 N   0  0  0  0  0  0  0  0  0  0  0  0
   34.1943   39.9583   55.9930 C   0  0  0  0  0  0  0  0  0  0  0  0
   33.1560   39.0692   58.5548 C   0  0  0  0  0  0  0  0  0  0  0  0
   32.6601   38.6019   59.7523 C   0  0  0  0  0  0  0  0  0  0  0  0
   32.0546   35.5244   61.5253 N   0  0  0  0  0  0  0  0  0  0  0  0
   31.5553   34.9952   62.7181 N   0  0  0  0  0  0  0  0  0  0  0  0
   29.1452   36.5555   62.0840 H   0  0  0  0  0  0  0  0  0  0  0  0
   29.4927   37.4562   63.5803 H   0  0  0  0  0  0  0  0  0  0  0  0
   30.5154   38.4179   61.4308 H   0  0  0  0  0  0  0  0  0  0  0  0
   31.6490   38.1429   62.7748 H   0  0  0  0  0  0  0  0  0  0  0  0
   32.2954   35.3256   58.9294 H   0  0  0  0  0  0  0  0  0  0  0  0
   33.1700   36.1750   56.7953 H   0  0  0  0  0  0  0  0  0  0  0  0
   33.9203   36.8775   55.0192 H   0  0  0  0  0  0  0  0  0  0  0  0
   34.8474   38.5314   53.2059 H   0  0  0  0  0  0  0  0  0  0  0  0
   34.1309   40.7925   56.6760 H   0  0  0  0  0  0  0  0  0  0  0  0
   33.4016   40.1151   58.4441 H   0  0  0  0  0  0  0  0  0  0  0  0
   32.5173   39.2807   60.5802 H   0  0  0  0  0  0  0  0  0  0  0  0
   31.9258   34.1709   63.0705 H   0  0  0  0  0  0  0  0  0  0  0  0
  1  2  2  0  0  0  0
  2 18  1  0  0  0  0
  2  3  1  0  0  0  0
  3  4  1  0  0  0  0
  3 19  1  0  0  0  0
  3 20  1  0  0  0  0
  4  5  1  0  0  0  0
  4 21  1  0  0  0  0
  4 22  1  0  0  0  0
  5  6  1  0  0  0  0
  5 17  2  0  0  0  0
  6 16  2  0  0  0  0
  6  7  1  0  0  0  0
  7  8  2  0  0  0  0
  7 23  1  0  0  0  0
  8  9  1  0  0  0  0
  8 24  1  0  0  0  0
  9 10  1  0  0  0  0
  9 15  2  0  0  0  0
 10 14  1  0  0  0  0
 10 11  1  0  0  0  0
 11 12  2  0  0  0  0
 11 25  1  0  0  0  0
 12 13  1  0  0  0  0
 12 26  1  0  0  0  0
 13 14  2  0  0  0  0
 14 27  1  0  0  0  0
 15 16  1  0  0  0  0
 15 28  1  0  0  0  0
 16 29  1  0  0  0  0
 17 18  1  0  0  0  0
 18 30  1  0  0  0  0
M  END
$$$$
