ZINC000000044007      none
 OpenBabel11202420153D

 41 42  0  0  0  0  0  0  0  0999 V2000
   31.6505   33.7158   59.3712 C   0  0  0  0  0  0  0  0  0  0  0  0
   32.3644   34.6703   58.5830 O   0  0  0  0  0  0  0  0  0  0  0  0
   32.3561   35.9592   59.0169 C   0  0  0  0  0  0  0  0  0  0  0  0
   31.6765   36.2942   60.1730 C   0  0  0  0  0  0  0  0  0  0  0  0
   31.6681   37.6187   60.6180 C   0  0  0  0  0  0  0  0  0  0  0  0
   30.9434   37.9791   61.8520 C   0  0  0  0  0  0  0  0  0  0  0  0
   30.0377   38.7894   61.8105 O   0  0  0  0  0  0  0  0  0  0  0  0
   31.2856   37.4103   63.0251 N   0  0  0  0  0  0  0  0  0  0  0  0
   32.3768   36.4342   63.0750 C   0  0  0  0  0  0  0  0  0  0  0  0
   30.5987   37.7519   64.1945 C   0  0  0  0  0  0  0  0  0  0  0  0
   29.9243   36.7752   64.9158 C   0  0  0  0  0  0  0  0  0  0  0  0
   29.2430   37.1166   66.0677 C   0  0  0  0  0  0  0  0  0  0  0  0
   29.2407   38.4278   66.5084 C   0  0  0  0  0  0  0  0  0  0  0  0
   29.9111   39.4021   65.7927 C   0  0  0  0  0  0  0  0  0  0  0  0
   30.5899   39.0682   64.6372 C   0  0  0  0  0  0  0  0  0  0  0  0
   32.3422   38.6020   59.8897 C   0  0  0  0  0  0  0  0  0  0  0  0
   33.0251   38.2607   58.7373 C   0  0  0  0  0  0  0  0  0  0  0  0
   33.6858   39.2166   58.0307 O   0  0  0  0  0  0  0  0  0  0  0  0
   32.9492   39.8950   57.0113 C   0  0  0  0  0  0  0  0  0  0  0  0
   33.0319   36.9401   58.2960 C   0  0  0  0  0  0  0  0  0  0  0  0
   33.6989   36.6082   57.1595 O   0  0  0  0  0  0  0  0  0  0  0  0
   32.9300   36.0358   56.0997 C   0  0  0  0  0  0  0  0  0  0  0  0
   31.7376   32.7298   58.9148 H   0  0  0  0  0  0  0  0  0  0  0  0
   32.0698   33.6889   60.3770 H   0  0  0  0  0  0  0  0  0  0  0  0
   30.5997   34.0005   59.4232 H   0  0  0  0  0  0  0  0  0  0  0  0
   31.1522   35.5330   60.7315 H   0  0  0  0  0  0  0  0  0  0  0  0
   31.9652   35.4262   63.0256 H   0  0  0  0  0  0  0  0  0  0  0  0
   33.0470   36.5948   62.2304 H   0  0  0  0  0  0  0  0  0  0  0  0
   32.9303   36.5554   64.0062 H   0  0  0  0  0  0  0  0  0  0  0  0
   29.9289   35.7508   64.5740 H   0  0  0  0  0  0  0  0  0  0  0  0
   28.7149   36.3584   66.6267 H   0  0  0  0  0  0  0  0  0  0  0  0
   28.7105   38.6917   67.4116 H   0  0  0  0  0  0  0  0  0  0  0  0
   29.9042   40.4255   66.1376 H   0  0  0  0  0  0  0  0  0  0  0  0
   31.1131   39.8301   64.0783 H   0  0  0  0  0  0  0  0  0  0  0  0
   32.3335   39.6273   60.2291 H   0  0  0  0  0  0  0  0  0  0  0  0
   32.0925   40.4002   57.4572 H   0  0  0  0  0  0  0  0  0  0  0  0
   33.5921   40.6297   56.5262 H   0  0  0  0  0  0  0  0  0  0  0  0
   32.6014   39.1729   56.2727 H   0  0  0  0  0  0  0  0  0  0  0  0
   32.1570   36.7392   55.7907 H   0  0  0  0  0  0  0  0  0  0  0  0
   33.5824   35.8183   55.2540 H   0  0  0  0  0  0  0  0  0  0  0  0
   32.4643   35.1132   56.4461 H   0  0  0  0  0  0  0  0  0  0  0  0
  1  2  1  0  0  0  0
  1 23  1  0  0  0  0
  1 24  1  0  0  0  0
  1 25  1  0  0  0  0
  2  3  1  0  0  0  0
  3 20  2  0  0  0  0
  3  4  1  0  0  0  0
  4  5  2  0  0  0  0
  4 26  1  0  0  0  0
  5  6  1  0  0  0  0
  5 16  1  0  0  0  0
  6  7  2  0  0  0  0
  6  8  1  0  0  0  0
  8  9  1  0  0  0  0
  8 10  1  0  0  0  0
  9 27  1  0  0  0  0
  9 28  1  0  0  0  0
  9 29  1  0  0  0  0
 10 15  2  0  0  0  0
 10 11  1  0  0  0  0
 11 12  2  0  0  0  0
 11 30  1  0  0  0  0
 12 13  1  0  0  0  0
 12 31  1  0  0  0  0
 13 14  2  0  0  0  0
 13 32  1  0  0  0  0
 14 15  1  0  0  0  0
 14 33  1  0  0  0  0
 15 34  1  0  0  0  0
 16 17  2  0  0  0  0
 16 35  1  0  0  0  0
 17 18  1  0  0  0  0
 17 20  1  0  0  0  0
 18 19  1  0  0  0  0
 19 36  1  0  0  0  0
 19 37  1  0  0  0  0
 19 38  1  0  0  0  0
 20 21  1  0  0  0  0
 21 22  1  0  0  0  0
 22 39  1  0  0  0  0
 22 40  1  0  0  0  0
 22 41  1  0  0  0  0
M  END
$$$$
