ZINC000000025828      none
 OpenBabel11202420153D

 43 46  0  0  1  0  0  0  0  0999 V2000
   33.3680   36.4664   52.3788 C   0  0  0  0  0  0  0  0  0  0  0  0
   34.3638   36.3287   53.3943 O   0  0  0  0  0  0  0  0  0  0  0  0
   33.9635   36.5128   54.6802 C   0  0  0  0  0  0  0  0  0  0  0  0
   34.0139   37.7604   55.2299 C   0  0  0  0  0  0  0  0  0  0  0  0
   33.6004   37.9547   56.5587 C   0  0  0  0  0  0  0  0  0  0  0  0
   33.6404   39.1696   57.1198 N   0  0  0  0  0  0  0  0  0  0  0  0
   33.2492   39.3288   58.3617 C   0  0  0  0  0  0  0  0  0  0  0  0
   32.7872   38.2349   59.1124 C   0  0  0  0  0  0  0  0  0  0  0  0
   32.3773   38.4245   60.4248 N   0  0  0  0  0  0  0  0  0  0  0  0
   31.8941   37.2879   61.2127 C   0  0  1  0  0  0  0  0  0  0  0  0
   32.4990   36.4035   61.0130 H   0  0  0  0  0  0  0  0  0  0  0  0
   31.9186   37.6282   62.7206 C   0  0  0  0  0  0  0  0  0  0  0  0
   30.4312   37.4887   63.1773 C   0  0  2  0  0  0  0  0  0  0  0  0
   30.1648   37.9839   64.1110 H   0  0  0  0  0  0  0  0  0  0  0  0
   30.1229   35.9620   63.1033 C   0  0  0  0  0  0  0  0  0  0  0  0
   30.0984   35.6411   61.5914 C   0  0  0  0  0  0  0  0  0  0  0  0
   30.3943   37.0040   60.8943 C   0  0  1  0  0  0  0  0  0  0  0  0
   30.1085   37.0744   59.8447 H   0  0  0  0  0  0  0  0  0  0  0  0
   29.6942   38.0119   61.8727 C   0  0  0  0  0  0  0  0  0  0  0  0
   32.7394   37.0287   58.5792 N   0  0  0  0  0  0  0  0  0  0  0  0
   33.1349   36.8479   57.3125 C   0  0  0  0  0  0  0  0  0  0  0  0
   33.0946   35.5756   56.7192 C   0  0  0  0  0  0  0  0  0  0  0  0
   33.5027   35.4175   55.4264 C   0  0  0  0  0  0  0  0  0  0  0  0
   33.4624   34.1851   54.8554 O   0  0  0  0  0  0  0  0  0  0  0  0
   34.6300   33.3715   54.9851 C   0  0  0  0  0  0  0  0  0  0  0  0
   32.5753   35.7372   52.5459 H   0  0  0  0  0  0  0  0  0  0  0  0
   32.9495   37.4723   52.4142 H   0  0  0  0  0  0  0  0  0  0  0  0
   33.8193   36.2948   51.4016 H   0  0  0  0  0  0  0  0  0  0  0  0
   34.3663   38.5966   54.6443 H   0  0  0  0  0  0  0  0  0  0  0  0
   33.2823   40.3102   58.8113 H   0  0  0  0  0  0  0  0  0  0  0  0
   32.4110   39.3096   60.8203 H   0  0  0  0  0  0  0  0  0  0  0  0
   32.5337   36.9098   63.2622 H   0  0  0  0  0  0  0  0  0  0  0  0
   32.2900   38.6412   62.8755 H   0  0  0  0  0  0  0  0  0  0  0  0
   29.1532   35.7480   63.5529 H   0  0  0  0  0  0  0  0  0  0  0  0
   30.9060   35.3899   63.6006 H   0  0  0  0  0  0  0  0  0  0  0  0
   29.1168   35.2693   61.2976 H   0  0  0  0  0  0  0  0  0  0  0  0
   30.8709   34.9125   61.3450 H   0  0  0  0  0  0  0  0  0  0  0  0
   29.9360   39.0476   61.6347 H   0  0  0  0  0  0  0  0  0  0  0  0
   28.6174   37.8498   61.9248 H   0  0  0  0  0  0  0  0  0  0  0  0
   32.7415   34.7254   57.2838 H   0  0  0  0  0  0  0  0  0  0  0  0
   34.4649   32.4167   54.4859 H   0  0  0  0  0  0  0  0  0  0  0  0
   35.4791   33.8788   54.5271 H   0  0  0  0  0  0  0  0  0  0  0  0
   34.8367   33.1983   56.0413 H   0  0  0  0  0  0  0  0  0  0  0  0
  1  2  1  0  0  0  0
  1 26  1  0  0  0  0
  1 27  1  0  0  0  0
  1 28  1  0  0  0  0
  2  3  1  0  0  0  0
  3 23  2  0  0  0  0
  3  4  1  0  0  0  0
  4  5  2  0  0  0  0
  4 29  1  0  0  0  0
  5 21  1  0  0  0  0
  5  6  1  0  0  0  0
  6  7  2  0  0  0  0
  7  8  1  0  0  0  0
  7 30  1  0  0  0  0
  8  9  1  0  0  0  0
  8 20  2  0  0  0  0
  9 10  1  0  0  0  0
  9 31  1  0  0  0  0
 10 11  1  6  0  0  0
 10 17  1  0  0  0  0
 10 12  1  0  0  0  0
 12 13  1  0  0  0  0
 12 32  1  0  0  0  0
 12 33  1  0  0  0  0
 13 14  1  1  0  0  0
 13 19  1  0  0  0  0
 13 15  1  0  0  0  0
 15 16  1  0  0  0  0
 15 34  1  0  0  0  0
 15 35  1  0  0  0  0
 16 17  1  0  0  0  0
 16 36  1  0  0  0  0
 16 37  1  0  0  0  0
 17 18  1  6  0  0  0
 17 19  1  0  0  0  0
 19 38  1  0  0  0  0
 19 39  1  0  0  0  0
 20 21  1  0  0  0  0
 21 22  2  0  0  0  0
 22 23  1  0  0  0  0
 22 40  1  0  0  0  0
 23 24  1  0  0  0  0
 24 25  1  0  0  0  0
 25 41  1  0  0  0  0
 25 42  1  0  0  0  0
 25 43  1  0  0  0  0
M  END
$$$$
