ZINC000000049567      none
 OpenBabel11202420153D

 38 40  0  0  0  0  0  0  0  0999 V2000
   31.6005   33.7848   62.6813 C   0  0  0  0  0  0  0  0  0  0  0  0
   31.4536   35.1137   62.0824 N   0  0  0  0  0  0  0  0  0  0  0  0
   30.9417   36.1980   62.7186 C   0  0  0  0  0  0  0  0  0  0  0  0
   30.4418   36.2135   64.1401 C   0  0  0  0  0  0  0  0  0  0  0  0
   31.5473   36.5578   65.0442 N   0  0  0  0  0  0  0  0  0  0  0  0
   31.2987   36.0461   66.3982 C   0  0  0  0  0  0  0  0  0  0  0  0
   32.5298   36.2945   67.2727 C   0  0  0  0  0  0  0  0  0  0  0  0
   32.8214   37.7969   67.3202 C   0  0  0  0  0  0  0  0  0  0  0  0
   33.0285   38.3140   65.8939 C   0  0  0  0  0  0  0  0  0  0  0  0
   31.7830   38.0070   65.0593 C   0  0  0  0  0  0  0  0  0  0  0  0
   30.9483   37.2707   61.8778 C   0  0  0  0  0  0  0  0  0  0  0  0
   30.4907   38.5949   62.1745 C   0  0  0  0  0  0  0  0  0  0  0  0
   30.1277   39.6452   62.4099 N   0  0  0  0  0  0  0  0  0  0  0  0
   31.5193   36.7997   60.6028 C   0  0  0  0  0  0  0  0  0  0  0  0
   31.7845   37.4084   59.3782 C   0  0  0  0  0  0  0  0  0  0  0  0
   32.3342   36.6692   58.3542 C   0  0  0  0  0  0  0  0  0  0  0  0
   32.6327   35.3270   58.5414 C   0  0  0  0  0  0  0  0  0  0  0  0
   32.3761   34.7124   59.7473 C   0  0  0  0  0  0  0  0  0  0  0  0
   31.8165   35.4406   60.7924 C   0  0  0  0  0  0  0  0  0  0  0  0
   32.5777   33.7069   63.1578 H   0  0  0  0  0  0  0  0  0  0  0  0
   30.8197   33.6339   63.4267 H   0  0  0  0  0  0  0  0  0  0  0  0
   31.5133   33.0248   61.9048 H   0  0  0  0  0  0  0  0  0  0  0  0
   29.6482   36.9543   64.2382 H   0  0  0  0  0  0  0  0  0  0  0  0
   30.0535   35.2285   64.3996 H   0  0  0  0  0  0  0  0  0  0  0  0
   30.4384   36.5591   66.8278 H   0  0  0  0  0  0  0  0  0  0  0  0
   31.0970   34.9760   66.3506 H   0  0  0  0  0  0  0  0  0  0  0  0
   33.3875   35.7705   66.8510 H   0  0  0  0  0  0  0  0  0  0  0  0
   32.3392   35.9287   68.2816 H   0  0  0  0  0  0  0  0  0  0  0  0
   33.7227   37.9748   67.9067 H   0  0  0  0  0  0  0  0  0  0  0  0
   31.9796   38.3170   67.7775 H   0  0  0  0  0  0  0  0  0  0  0  0
   33.8941   37.8218   65.4506 H   0  0  0  0  0  0  0  0  0  0  0  0
   33.1943   39.3911   65.9179 H   0  0  0  0  0  0  0  0  0  0  0  0
   31.9330   38.3613   64.0394 H   0  0  0  0  0  0  0  0  0  0  0  0
   30.9204   38.5109   65.4955 H   0  0  0  0  0  0  0  0  0  0  0  0
   31.5559   38.4537   59.2310 H   0  0  0  0  0  0  0  0  0  0  0  0
   32.5371   37.1372   57.4022 H   0  0  0  0  0  0  0  0  0  0  0  0
   33.0670   34.7579   57.7329 H   0  0  0  0  0  0  0  0  0  0  0  0
   32.6087   33.6663   59.8811 H   0  0  0  0  0  0  0  0  0  0  0  0
  1  2  1  0  0  0  0
  1 20  1  0  0  0  0
  1 21  1  0  0  0  0
  1 22  1  0  0  0  0
  2 19  1  0  0  0  0
  2  3  1  0  0  0  0
  3  4  1  0  0  0  0
  3 11  2  0  0  0  0
  4  5  1  0  0  0  0
  4 23  1  0  0  0  0
  4 24  1  0  0  0  0
  5 10  1  0  0  0  0
  5  6  1  0  0  0  0
  6  7  1  0  0  0  0
  6 25  1  0  0  0  0
  6 26  1  0  0  0  0
  7  8  1  0  0  0  0
  7 27  1  0  0  0  0
  7 28  1  0  0  0  0
  8  9  1  0  0  0  0
  8 29  1  0  0  0  0
  8 30  1  0  0  0  0
  9 10  1  0  0  0  0
  9 31  1  0  0  0  0
  9 32  1  0  0  0  0
 10 33  1  0  0  0  0
 10 34  1  0  0  0  0
 11 12  1  0  0  0  0
 11 14  1  0  0  0  0
 12 13  3  0  0  0  0
 14 19  2  0  0  0  0
 14 15  1  0  0  0  0
 15 16  2  0  0  0  0
 15 35  1  0  0  0  0
 16 17  1  0  0  0  0
 16 36  1  0  0  0  0
 17 18  2  0  0  0  0
 17 37  1  0  0  0  0
 18 19  1  0  0  0  0
 18 38  1  0  0  0  0
M  END
$$$$
