ZINC000000040285      none
 OpenBabel11202420153D

 27 28  0  0  0  0  0  0  0  0999 V2000
   31.3622   34.1151   61.1934 C   0  0  0  0  0  0  0  0  0  0  0  0
   31.8589   35.3731   61.7564 N   0  0  0  0  0  0  0  0  0  0  0  0
   32.6101   35.5317   62.8881 C   0  0  0  0  0  0  0  0  0  0  0  0
   32.8367   36.8072   63.0278 N   0  0  0  0  0  0  0  0  0  0  0  0
   32.2776   37.4617   62.0734 N   0  0  0  0  0  0  0  0  0  0  0  0
   31.6632   36.6312   61.2633 C   0  0  0  0  0  0  0  0  0  0  0  0
   30.7577   37.0590   59.8135 S   0  0  0  0  0  0  0  0  0  0  0  0
   32.0630   37.8669   58.8546 C   0  0  0  0  0  0  0  0  0  0  0  0
   32.7696   36.8423   58.0049 C   0  0  0  0  0  0  0  0  0  0  0  0
   32.8497   35.6928   58.3824 O   0  0  0  0  0  0  0  0  0  0  0  0
   33.3622   37.2366   56.7177 C   0  0  0  0  0  0  0  0  0  0  0  0
   33.4529   36.3109   55.6727 C   0  0  0  0  0  0  0  0  0  0  0  0
   34.0045   36.6889   54.4677 C   0  0  0  0  0  0  0  0  0  0  0  0
   34.4787   37.9793   54.2934 C   0  0  0  0  0  0  0  0  0  0  0  0
   35.1791   38.4444   52.7746 Cl  0  0  0  0  0  0  0  0  0  0  0  0
   34.3969   38.9000   55.3257 C   0  0  0  0  0  0  0  0  0  0  0  0
   33.8430   38.5375   56.5345 C   0  0  0  0  0  0  0  0  0  0  0  0
   32.0953   33.7164   60.4921 H   0  0  0  0  0  0  0  0  0  0  0  0
   30.4222   34.2965   60.6723 H   0  0  0  0  0  0  0  0  0  0  0  0
   31.1997   33.3967   61.9968 H   0  0  0  0  0  0  0  0  0  0  0  0
   32.9536   34.7452   63.5437 H   0  0  0  0  0  0  0  0  0  0  0  0
   31.6231   38.6302   58.2128 H   0  0  0  0  0  0  0  0  0  0  0  0
   32.7782   38.3314   59.5336 H   0  0  0  0  0  0  0  0  0  0  0  0
   33.0881   35.3035   55.8088 H   0  0  0  0  0  0  0  0  0  0  0  0
   34.0718   35.9764   53.6588 H   0  0  0  0  0  0  0  0  0  0  0  0
   34.7686   39.9039   55.1828 H   0  0  0  0  0  0  0  0  0  0  0  0
   33.7806   39.2559   57.3384 H   0  0  0  0  0  0  0  0  0  0  0  0
  1  2  1  0  0  0  0
  1 18  1  0  0  0  0
  1 19  1  0  0  0  0
  1 20  1  0  0  0  0
  2  6  1  0  0  0  0
  2  3  1  0  0  0  0
  3  4  2  0  0  0  0
  3 21  1  0  0  0  0
  4  5  1  0  0  0  0
  5  6  2  0  0  0  0
  6  7  1  0  0  0  0
  7  8  1  0  0  0  0
  8  9  1  0  0  0  0
  8 22  1  0  0  0  0
  8 23  1  0  0  0  0
  9 10  2  0  0  0  0
  9 11  1  0  0  0  0
 11 17  2  0  0  0  0
 11 12  1  0  0  0  0
 12 13  2  0  0  0  0
 12 24  1  0  0  0  0
 13 14  1  0  0  0  0
 13 25  1  0  0  0  0
 14 15  1  0  0  0  0
 14 16  2  0  0  0  0
 16 17  1  0  0  0  0
 16 26  1  0  0  0  0
 17 27  1  0  0  0  0
M  END
$$$$
