ZINC000000033869      none
 OpenBabel11202420153D

 26 26  0  0  0  0  0  0  0  0999 V2000
   30.6039   37.5377   60.9387 C   0  0  0  0  0  0  0  0  0  0  0  0
   31.7900   36.6298   60.7382 C   0  0  0  0  0  0  0  0  0  0  0  0
   32.3841   36.1865   61.6992 O   0  0  0  0  0  0  0  0  0  0  0  0
   32.2249   36.2831   59.3861 C   0  0  0  0  0  0  0  0  0  0  0  0
   32.2546   34.9511   58.9611 C   0  0  0  0  0  0  0  0  0  0  0  0
   31.8375   33.8407   59.8908 C   0  0  0  0  0  0  0  0  0  0  0  0
   32.6704   34.6687   57.6629 C   0  0  0  0  0  0  0  0  0  0  0  0
   33.0468   35.6655   56.8226 C   0  0  0  0  0  0  0  0  0  0  0  0
   33.4902   35.3158   55.4254 C   0  0  0  0  0  0  0  0  0  0  0  0
   33.0353   36.9640   57.2020 N   0  0  0  0  0  0  0  0  0  0  0  0
   33.4528   37.9970   56.2507 C   0  0  0  0  0  0  0  0  0  0  0  0
   32.6463   37.3221   58.4417 C   0  0  0  0  0  0  0  0  0  0  0  0
   32.6398   38.4951   58.7716 O   0  0  0  0  0  0  0  0  0  0  0  0
   29.7208   37.0873   60.4854 H   0  0  0  0  0  0  0  0  0  0  0  0
   30.4318   37.6805   62.0055 H   0  0  0  0  0  0  0  0  0  0  0  0
   30.8011   38.5020   60.4701 H   0  0  0  0  0  0  0  0  0  0  0  0
   31.9256   32.8837   59.3763 H   0  0  0  0  0  0  0  0  0  0  0  0
   30.8032   33.9938   60.1987 H   0  0  0  0  0  0  0  0  0  0  0  0
   32.4822   33.8413   60.7697 H   0  0  0  0  0  0  0  0  0  0  0  0
   32.6941   33.6446   57.3207 H   0  0  0  0  0  0  0  0  0  0  0  0
   33.4390   34.2358   55.2876 H   0  0  0  0  0  0  0  0  0  0  0  0
   32.8367   35.8056   54.7036 H   0  0  0  0  0  0  0  0  0  0  0  0
   34.5157   35.6530   55.2745 H   0  0  0  0  0  0  0  0  0  0  0  0
   32.5870   38.3409   55.6849 H   0  0  0  0  0  0  0  0  0  0  0  0
   33.8889   38.8357   56.7933 H   0  0  0  0  0  0  0  0  0  0  0  0
   34.1930   37.5827   55.5662 H   0  0  0  0  0  0  0  0  0  0  0  0
  1  2  1  0  0  0  0
  1 14  1  0  0  0  0
  1 15  1  0  0  0  0
  1 16  1  0  0  0  0
  2  3  2  0  0  0  0
  2  4  1  0  0  0  0
  4 12  1  0  0  0  0
  4  5  2  0  0  0  0
  5  6  1  0  0  0  0
  5  7  1  0  0  0  0
  6 17  1  0  0  0  0
  6 18  1  0  0  0  0
  6 19  1  0  0  0  0
  7  8  2  0  0  0  0
  7 20  1  0  0  0  0
  8  9  1  0  0  0  0
  8 10  1  0  0  0  0
  9 21  1  0  0  0  0
  9 22  1  0  0  0  0
  9 23  1  0  0  0  0
 10 11  1  0  0  0  0
 10 12  1  0  0  0  0
 11 24  1  0  0  0  0
 11 25  1  0  0  0  0
 11 26  1  0  0  0  0
 12 13  2  0  0  0  0
M  END
$$$$
