ZINC000000010465      none
 OpenBabel11202420153D

 30 32  0  0  0  0  0  0  0  0999 V2000
   32.4649   38.5997   59.6890 N   0  0  0  0  0  0  0  0  0  0  0  0
   32.8553   38.2656   58.4040 C   0  0  0  0  0  0  0  0  0  0  0  0
   32.8389   36.9934   58.0342 N   0  0  0  0  0  0  0  0  0  0  0  0
   33.2057   36.6347   56.8126 C   0  0  0  0  0  0  0  0  0  0  0  0
   33.6098   37.6046   55.9160 C   0  0  0  0  0  0  0  0  0  0  0  0
   34.0341   37.2335   54.5185 C   0  0  0  0  0  0  0  0  0  0  0  0
   33.9300   35.7404   54.3417 C   0  0  0  0  0  0  0  0  0  0  0  0
   32.7513   35.1805   53.8850 C   0  0  0  0  0  0  0  0  0  0  0  0
   32.6511   33.8116   53.7204 C   0  0  0  0  0  0  0  0  0  0  0  0
   33.7324   32.9970   54.0145 C   0  0  0  0  0  0  0  0  0  0  0  0
   34.9196   33.5610   54.4751 C   0  0  0  0  0  0  0  0  0  0  0  0
   35.0131   34.9338   54.6368 C   0  0  0  0  0  0  0  0  0  0  0  0
   35.8228   32.5606   54.6913 O   0  0  0  0  0  0  0  0  0  0  0  0
   35.3144   31.4215   53.9720 C   0  0  0  0  0  0  0  0  0  0  0  0
   33.8919   31.6432   53.9420 O   0  0  0  0  0  0  0  0  0  0  0  0
   33.6218   38.9363   56.3360 C   0  0  0  0  0  0  0  0  0  0  0  0
   34.0247   39.9419   55.4724 N   0  0  0  0  0  0  0  0  0  0  0  0
   33.2364   39.2255   57.5749 N   0  0  0  0  0  0  0  0  0  0  0  0
   32.1838   37.9062   60.3063 H   0  0  0  0  0  0  0  0  0  0  0  0
   32.4722   39.5273   59.9725 H   0  0  0  0  0  0  0  0  0  0  0  0
   33.1891   35.5949   56.5211 H   0  0  0  0  0  0  0  0  0  0  0  0
   35.0651   37.5474   54.3564 H   0  0  0  0  0  0  0  0  0  0  0  0
   33.3852   37.7308   53.7976 H   0  0  0  0  0  0  0  0  0  0  0  0
   31.9072   35.8140   53.6557 H   0  0  0  0  0  0  0  0  0  0  0  0
   31.7293   33.3770   53.3628 H   0  0  0  0  0  0  0  0  0  0  0  0
   35.9326   35.3738   54.9934 H   0  0  0  0  0  0  0  0  0  0  0  0
   35.5469   30.4984   54.5029 H   0  0  0  0  0  0  0  0  0  0  0  0
   35.7193   31.3953   52.9603 H   0  0  0  0  0  0  0  0  0  0  0  0
   34.3012   39.7233   54.5689 H   0  0  0  0  0  0  0  0  0  0  0  0
   34.0302   40.8646   55.7716 H   0  0  0  0  0  0  0  0  0  0  0  0
  1  2  1  0  0  0  0
  1 19  1  0  0  0  0
  1 20  1  0  0  0  0
  2 18  2  0  0  0  0
  2  3  1  0  0  0  0
  3  4  2  0  0  0  0
  4  5  1  0  0  0  0
  4 21  1  0  0  0  0
  5  6  1  0  0  0  0
  5 16  2  0  0  0  0
  6  7  1  0  0  0  0
  6 22  1  0  0  0  0
  6 23  1  0  0  0  0
  7 12  2  0  0  0  0
  7  8  1  0  0  0  0
  8  9  2  0  0  0  0
  8 24  1  0  0  0  0
  9 10  1  0  0  0  0
  9 25  1  0  0  0  0
 10 15  1  0  0  0  0
 10 11  2  0  0  0  0
 11 12  1  0  0  0  0
 11 13  1  0  0  0  0
 12 26  1  0  0  0  0
 13 14  1  0  0  0  0
 14 15  1  0  0  0  0
 14 27  1  0  0  0  0
 14 28  1  0  0  0  0
 16 17  1  0  0  0  0
 16 18  1  0  0  0  0
 17 29  1  0  0  0  0
 17 30  1  0  0  0  0
M  END
$$$$
