ZINC000000039394      none
 OpenBabel11202420153D

 44 45  0  0  1  0  0  0  0  0999 V2000
   32.6017   33.5920   55.7339 C   0  0  0  0  0  0  0  0  0  0  0  0
   32.9666   34.9290   56.0826 O   0  0  0  0  0  0  0  0  0  0  0  0
   32.6741   35.3394   57.3465 C   0  0  0  0  0  0  0  0  0  0  0  0
   32.0503   34.4727   58.2294 C   0  0  0  0  0  0  0  0  0  0  0  0
   31.7583   34.8862   59.5153 C   0  0  0  0  0  0  0  0  0  0  0  0
   32.0788   36.1745   59.9216 C   0  0  0  0  0  0  0  0  0  0  0  0
   31.7768   36.5938   61.2238 N   0  0  0  0  0  0  0  0  0  0  0  0
   30.7140   36.0742   61.8695 C   0  0  0  0  0  0  0  0  0  0  0  0
   30.0191   35.2435   61.3233 O   0  0  0  0  0  0  0  0  0  0  0  0
   30.3853   36.5298   63.2679 C   0  0  2  0  0  0  0  0  0  0  0  0
   31.2238   36.3090   63.9284 H   0  0  0  0  0  0  0  0  0  0  0  0
   29.1383   35.7950   63.7637 C   0  0  0  0  0  0  0  0  0  0  0  0
   30.0728   38.3167   63.2641 S   0  0  0  0  0  0  0  0  0  0  0  0
   29.7012   38.6697   65.0041 C   0  0  0  0  0  0  0  0  0  0  0  0
   30.9878   38.7670   65.7828 C   0  0  0  0  0  0  0  0  0  0  0  0
   31.5260   37.6385   66.3723 C   0  0  0  0  0  0  0  0  0  0  0  0
   32.7087   37.7269   67.0825 C   0  0  0  0  0  0  0  0  0  0  0  0
   33.3478   38.9459   67.2118 C   0  0  0  0  0  0  0  0  0  0  0  0
   32.8068   40.0754   66.6267 C   0  0  0  0  0  0  0  0  0  0  0  0
   31.6268   39.9860   65.9121 C   0  0  0  0  0  0  0  0  0  0  0  0
   32.7038   37.0453   59.0395 C   0  0  0  0  0  0  0  0  0  0  0  0
   33.0018   36.6294   57.7525 C   0  0  0  0  0  0  0  0  0  0  0  0
   33.6137   37.4809   56.8865 O   0  0  0  0  0  0  0  0  0  0  0  0
   32.7687   38.3008   56.0768 C   0  0  0  0  0  0  0  0  0  0  0  0
   33.1127   32.8919   56.3948 H   0  0  0  0  0  0  0  0  0  0  0  0
   31.5237   33.4705   55.8392 H   0  0  0  0  0  0  0  0  0  0  0  0
   32.8906   33.3942   54.7016 H   0  0  0  0  0  0  0  0  0  0  0  0
   31.7965   33.4715   57.9139 H   0  0  0  0  0  0  0  0  0  0  0  0
   31.2763   34.2077   60.2036 H   0  0  0  0  0  0  0  0  0  0  0  0
   32.3324   37.2581   61.6606 H   0  0  0  0  0  0  0  0  0  0  0  0
   28.9006   36.1245   64.7752 H   0  0  0  0  0  0  0  0  0  0  0  0
   28.2998   36.0158   63.1033 H   0  0  0  0  0  0  0  0  0  0  0  0
   29.3261   34.7212   63.7661 H   0  0  0  0  0  0  0  0  0  0  0  0
   29.1608   39.6135   65.0759 H   0  0  0  0  0  0  0  0  0  0  0  0
   29.0878   37.8676   65.4147 H   0  0  0  0  0  0  0  0  0  0  0  0
   31.0243   36.6870   66.2749 H   0  0  0  0  0  0  0  0  0  0  0  0
   33.1311   36.8445   67.5400 H   0  0  0  0  0  0  0  0  0  0  0  0
   34.2694   39.0157   67.7704 H   0  0  0  0  0  0  0  0  0  0  0  0
   33.3059   41.0278   66.7281 H   0  0  0  0  0  0  0  0  0  0  0  0
   31.2040   40.8686   65.4553 H   0  0  0  0  0  0  0  0  0  0  0  0
   32.9570   38.0462   59.3564 H   0  0  0  0  0  0  0  0  0  0  0  0
   33.3823   38.9309   55.4331 H   0  0  0  0  0  0  0  0  0  0  0  0
   32.1287   37.6676   55.4622 H   0  0  0  0  0  0  0  0  0  0  0  0
   32.1501   38.9292   56.7176 H   0  0  0  0  0  0  0  0  0  0  0  0
  1  2  1  0  0  0  0
  1 25  1  0  0  0  0
  1 26  1  0  0  0  0
  1 27  1  0  0  0  0
  2  3  1  0  0  0  0
  3 22  2  0  0  0  0
  3  4  1  0  0  0  0
  4  5  2  0  0  0  0
  4 28  1  0  0  0  0
  5  6  1  0  0  0  0
  5 29  1  0  0  0  0
  6  7  1  0  0  0  0
  6 21  2  0  0  0  0
  7  8  1  0  0  0  0
  7 30  1  0  0  0  0
  8  9  2  0  0  0  0
  8 10  1  0  0  0  0
 10 11  1  1  0  0  0
 10 12  1  0  0  0  0
 10 13  1  0  0  0  0
 12 31  1  0  0  0  0
 12 32  1  0  0  0  0
 12 33  1  0  0  0  0
 13 14  1  0  0  0  0
 14 15  1  0  0  0  0
 14 34  1  0  0  0  0
 14 35  1  0  0  0  0
 15 20  2  0  0  0  0
 15 16  1  0  0  0  0
 16 17  2  0  0  0  0
 16 36  1  0  0  0  0
 17 18  1  0  0  0  0
 17 37  1  0  0  0  0
 18 19  2  0  0  0  0
 18 38  1  0  0  0  0
 19 20  1  0  0  0  0
 19 39  1  0  0  0  0
 20 40  1  0  0  0  0
 21 22  1  0  0  0  0
 21 41  1  0  0  0  0
 22 23  1  0  0  0  0
 23 24  1  0  0  0  0
 24 42  1  0  0  0  0
 24 43  1  0  0  0  0
 24 44  1  0  0  0  0
M  END
$$$$
