ZINC000000037971      none
 OpenBabel11202420153D

 47 49  0  0  0  0  0  0  0  0999 V2000
   32.4254   32.4572   62.5114 C   0  0  0  0  0  0  0  0  0  0  0  0
   31.3453   33.5335   62.3859 C   0  0  0  0  0  0  0  0  0  0  0  0
   31.8484   34.6329   61.5818 O   0  0  0  0  0  0  0  0  0  0  0  0
   31.6433   34.5620   60.2515 C   0  0  0  0  0  0  0  0  0  0  0  0
   31.0598   33.6072   59.7765 O   0  0  0  0  0  0  0  0  0  0  0  0
   32.1256   35.6397   59.3746 C   0  0  0  0  0  0  0  0  0  0  0  0
   32.5037   35.3622   58.0504 C   0  0  0  0  0  0  0  0  0  0  0  0
   32.9311   36.3021   57.2475 N   0  0  0  0  0  0  0  0  0  0  0  0
   33.0437   37.5784   57.6433 C   0  0  0  0  0  0  0  0  0  0  0  0
   33.5116   38.5649   56.7603 C   0  0  0  0  0  0  0  0  0  0  0  0
   33.6135   39.8569   57.1805 C   0  0  0  0  0  0  0  0  0  0  0  0
   33.2602   40.2196   58.4770 C   0  0  0  0  0  0  0  0  0  0  0  0
   32.8027   39.2884   59.3612 C   0  0  0  0  0  0  0  0  0  0  0  0
   32.6855   37.9504   58.9604 C   0  0  0  0  0  0  0  0  0  0  0  0
   32.2135   36.9565   59.8517 C   0  0  0  0  0  0  0  0  0  0  0  0
   31.8528   37.2715   61.1424 N   0  0  0  0  0  0  0  0  0  0  0  0
   30.4300   37.6287   61.2192 C   0  0  0  0  0  0  0  0  0  0  0  0
   30.2169   38.6332   62.3534 C   0  0  0  0  0  0  0  0  0  0  0  0
   30.6403   38.0327   63.6254 N   0  0  0  0  0  0  0  0  0  0  0  0
   29.6400   37.0722   64.1135 C   0  0  0  0  0  0  0  0  0  0  0  0
   30.1472   36.4278   65.4062 C   0  0  0  0  0  0  0  0  0  0  0  0
   30.4278   37.4513   66.3649 O   0  0  0  0  0  0  0  0  0  0  0  0
   31.3987   38.4039   65.9226 C   0  0  0  0  0  0  0  0  0  0  0  0
   30.9041   39.0683   64.6350 C   0  0  0  0  0  0  0  0  0  0  0  0
   33.3082   32.8824   62.9889 H   0  0  0  0  0  0  0  0  0  0  0  0
   32.0476   31.6320   63.1149 H   0  0  0  0  0  0  0  0  0  0  0  0
   32.6899   32.0906   61.5195 H   0  0  0  0  0  0  0  0  0  0  0  0
   31.0808   33.9001   63.3779 H   0  0  0  0  0  0  0  0  0  0  0  0
   30.4625   33.1084   61.9084 H   0  0  0  0  0  0  0  0  0  0  0  0
   32.4350   34.3483   57.6847 H   0  0  0  0  0  0  0  0  0  0  0  0
   33.7895   38.3003   55.7508 H   0  0  0  0  0  0  0  0  0  0  0  0
   33.9742   40.6113   56.4970 H   0  0  0  0  0  0  0  0  0  0  0  0
   33.3499   41.2505   58.7860 H   0  0  0  0  0  0  0  0  0  0  0  0
   32.5312   39.5802   60.3650 H   0  0  0  0  0  0  0  0  0  0  0  0
   32.0701   36.5147   61.7735 H   0  0  0  0  0  0  0  0  0  0  0  0
   30.1158   38.0742   60.2754 H   0  0  0  0  0  0  0  0  0  0  0  0
   29.8402   36.7325   61.4121 H   0  0  0  0  0  0  0  0  0  0  0  0
   30.8064   39.5295   62.1606 H   0  0  0  0  0  0  0  0  0  0  0  0
   29.1611   38.8981   62.4104 H   0  0  0  0  0  0  0  0  0  0  0  0
   28.7019   37.5915   64.3094 H   0  0  0  0  0  0  0  0  0  0  0  0
   29.4790   36.3003   63.3608 H   0  0  0  0  0  0  0  0  0  0  0  0
   31.0568   35.8638   65.1993 H   0  0  0  0  0  0  0  0  0  0  0  0
   29.3852   35.7569   65.8027 H   0  0  0  0  0  0  0  0  0  0  0  0
   32.3445   37.8972   65.7306 H   0  0  0  0  0  0  0  0  0  0  0  0
   31.5418   39.1626   66.6920 H   0  0  0  0  0  0  0  0  0  0  0  0
   31.6659   39.7535   64.2632 H   0  0  0  0  0  0  0  0  0  0  0  0
   29.9864   39.6201   64.8387 H   0  0  0  0  0  0  0  0  0  0  0  0
  1  2  1  0  0  0  0
  1 25  1  0  0  0  0
  1 26  1  0  0  0  0
  1 27  1  0  0  0  0
  2  3  1  0  0  0  0
  2 28  1  0  0  0  0
  2 29  1  0  0  0  0
  3  4  1  0  0  0  0
  4  5  2  0  0  0  0
  4  6  1  0  0  0  0
  6 15  2  0  0  0  0
  6  7  1  0  0  0  0
  7  8  2  0  0  0  0
  7 30  1  0  0  0  0
  8  9  1  0  0  0  0
  9 14  2  0  0  0  0
  9 10  1  0  0  0  0
 10 11  2  0  0  0  0
 10 31  1  0  0  0  0
 11 12  1  0  0  0  0
 11 32  1  0  0  0  0
 12 13  2  0  0  0  0
 12 33  1  0  0  0  0
 13 14  1  0  0  0  0
 13 34  1  0  0  0  0
 14 15  1  0  0  0  0
 15 16  1  0  0  0  0
 16 17  1  0  0  0  0
 16 35  1  0  0  0  0
 17 18  1  0  0  0  0
 17 36  1  0  0  0  0
 17 37  1  0  0  0  0
 18 19  1  0  0  0  0
 18 38  1  0  0  0  0
 18 39  1  0  0  0  0
 19 24  1  0  0  0  0
 19 20  1  0  0  0  0
 20 21  1  0  0  0  0
 20 40  1  0  0  0  0
 20 41  1  0  0  0  0
 21 22  1  0  0  0  0
 21 42  1  0  0  0  0
 21 43  1  0  0  0  0
 22 23  1  0  0  0  0
 23 24  1  0  0  0  0
 23 44  1  0  0  0  0
 23 45  1  0  0  0  0
 24 46  1  0  0  0  0
 24 47  1  0  0  0  0
M  END
$$$$
