ZINC000000002199      none
 OpenBabel11202420153D

 43 44  0  0  1  0  0  0  0  0999 V2000
   32.6202   33.7440   70.3684 C   0  0  0  0  0  0  0  0  0  0  0  0
   32.0297   34.4489   69.1747 C   0  0  0  0  0  0  0  0  0  0  0  0
   32.7436   35.4472   68.5385 C   0  0  0  0  0  0  0  0  0  0  0  0
   32.2018   36.0938   67.4433 C   0  0  0  0  0  0  0  0  0  0  0  0
   30.9463   35.7422   66.9844 C   0  0  0  0  0  0  0  0  0  0  0  0
   30.2555   36.5668   65.5889 S   0  0  0  0  0  0  0  0  0  0  0  0
   28.8458   36.4204   65.6934 O   0  0  0  0  0  0  0  0  0  0  0  0
   30.9017   37.8298   65.5087 O   0  0  0  0  0  0  0  0  0  0  0  0
   30.7150   35.7199   64.2420 N   0  0  0  0  0  0  0  0  0  0  0  0
   30.3726   34.4718   64.1103 C   0  0  0  0  0  0  0  0  0  0  0  0
   29.6424   33.8664   65.0722 O   0  0  0  0  0  0  0  0  0  0  0  0
   30.7537   33.7695   62.9933 N   0  0  0  0  0  0  0  0  0  0  0  0
   31.5457   34.4258   61.9501 C   0  0  1  0  0  0  0  0  0  0  0  0
   32.1670   35.2006   62.3993 H   0  0  0  0  0  0  0  0  0  0  0  0
   32.4385   33.3918   61.2612 C   0  0  0  0  0  0  0  0  0  0  0  0
   30.6080   35.0577   60.9195 C   0  0  0  0  0  0  0  0  0  0  0  0
   31.3510   36.1173   60.1475 C   0  0  0  0  0  0  0  0  0  0  0  0
   31.3542   37.4249   60.5961 C   0  0  0  0  0  0  0  0  0  0  0  0
   32.0398   38.3961   59.8906 C   0  0  0  0  0  0  0  0  0  0  0  0
   32.7134   38.0617   58.7307 C   0  0  0  0  0  0  0  0  0  0  0  0
   32.7058   36.7552   58.2792 C   0  0  0  0  0  0  0  0  0  0  0  0
   32.0246   35.7830   58.9875 C   0  0  0  0  0  0  0  0  0  0  0  0
   30.2302   34.7475   67.6238 C   0  0  0  0  0  0  0  0  0  0  0  0
   30.7742   34.0970   68.7154 C   0  0  0  0  0  0  0  0  0  0  0  0
   32.3392   34.2735   71.2787 H   0  0  0  0  0  0  0  0  0  0  0  0
   32.2423   32.7224   70.4109 H   0  0  0  0  0  0  0  0  0  0  0  0
   33.7064   33.7259   70.2791 H   0  0  0  0  0  0  0  0  0  0  0  0
   33.7244   35.7221   68.8972 H   0  0  0  0  0  0  0  0  0  0  0  0
   32.7595   36.8740   66.9466 H   0  0  0  0  0  0  0  0  0  0  0  0
   28.7825   34.2792   65.2317 H   0  0  0  0  0  0  0  0  0  0  0  0
   30.4984   32.8387   62.8950 H   0  0  0  0  0  0  0  0  0  0  0  0
   33.1064   32.9417   61.9955 H   0  0  0  0  0  0  0  0  0  0  0  0
   31.8170   32.6170   60.8121 H   0  0  0  0  0  0  0  0  0  0  0  0
   33.0278   33.8802   60.4851 H   0  0  0  0  0  0  0  0  0  0  0  0
   30.2528   34.2896   60.2325 H   0  0  0  0  0  0  0  0  0  0  0  0
   29.7579   35.5094   61.4306 H   0  0  0  0  0  0  0  0  0  0  0  0
   30.8242   37.6870   61.4999 H   0  0  0  0  0  0  0  0  0  0  0  0
   32.0454   39.4169   60.2431 H   0  0  0  0  0  0  0  0  0  0  0  0
   33.2453   38.8212   58.1771 H   0  0  0  0  0  0  0  0  0  0  0  0
   33.2318   36.4940   57.3728 H   0  0  0  0  0  0  0  0  0  0  0  0
   32.0184   34.7624   58.6346 H   0  0  0  0  0  0  0  0  0  0  0  0
   29.2472   34.4759   67.2679 H   0  0  0  0  0  0  0  0  0  0  0  0
   30.2167   33.3168   69.2123 H   0  0  0  0  0  0  0  0  0  0  0  0
  1  2  1  0  0  0  0
  1 25  1  0  0  0  0
  1 26  1  0  0  0  0
  1 27  1  0  0  0  0
  2 24  2  0  0  0  0
  2  3  1  0  0  0  0
  3  4  2  0  0  0  0
  3 28  1  0  0  0  0
  4  5  1  0  0  0  0
  4 29  1  0  0  0  0
  5  6  1  0  0  0  0
  5 23  2  0  0  0  0
  6  7  2  0  0  0  0
  6  8  2  0  0  0  0
  6  9  1  0  0  0  0
  9 10  2  0  0  0  0
 10 11  1  0  0  0  0
 10 12  1  0  0  0  0
 11 30  1  0  0  0  0
 12 13  1  0  0  0  0
 12 31  1  0  0  0  0
 13 14  1  1  0  0  0
 13 15  1  0  0  0  0
 13 16  1  0  0  0  0
 15 32  1  0  0  0  0
 15 33  1  0  0  0  0
 15 34  1  0  0  0  0
 16 17  1  0  0  0  0
 16 35  1  0  0  0  0
 16 36  1  0  0  0  0
 17 22  2  0  0  0  0
 17 18  1  0  0  0  0
 18 19  2  0  0  0  0
 18 37  1  0  0  0  0
 19 20  1  0  0  0  0
 19 38  1  0  0  0  0
 20 21  2  0  0  0  0
 20 39  1  0  0  0  0
 21 22  1  0  0  0  0
 21 40  1  0  0  0  0
 22 41  1  0  0  0  0
 23 24  1  0  0  0  0
 23 42  1  0  0  0  0
 24 43  1  0  0  0  0
M  END
$$$$
