ZINC000000051245      none
 OpenBabel11202420153D

 36 39  0  0  0  0  0  0  0  0999 V2000
   32.3288   35.3453   58.6463 O   0  0  0  0  0  0  0  0  0  0  0  0
   31.8084   34.3020   58.3126 C   0  0  0  0  0  0  0  0  0  0  0  0
   30.9984   33.5118   59.3079 C   0  0  0  0  0  0  0  0  0  0  0  0
   32.0479   33.0485   60.7078 S   0  0  0  0  0  0  0  0  0  0  0  0
   31.7900   34.4402   61.7573 C   0  0  0  0  0  0  0  0  0  0  0  0
   30.6289   35.0857   61.7102 N   0  0  0  0  0  0  0  0  0  0  0  0
   30.3948   36.1083   62.4591 N   0  0  0  0  0  0  0  0  0  0  0  0
   31.3217   36.5405   63.3019 C   0  0  0  0  0  0  0  0  0  0  0  0
   32.5618   35.8732   63.3711 C   0  0  0  0  0  0  0  0  0  0  0  0
   32.7563   34.8200   62.5829 N   0  0  0  0  0  0  0  0  0  0  0  0
   33.3433   36.5034   64.3074 N   0  0  0  0  0  0  0  0  0  0  0  0
   34.2459   36.2380   64.5442 H   0  0  0  0  0  0  0  0  0  0  0  0
   32.6612   37.5722   64.8659 C   0  0  0  0  0  0  0  0  0  0  0  0
   33.0132   38.5027   65.8379 C   0  0  0  0  0  0  0  0  0  0  0  0
   32.1194   39.4835   66.2111 C   0  0  0  0  0  0  0  0  0  0  0  0
   30.8642   39.5532   65.6264 C   0  0  0  0  0  0  0  0  0  0  0  0
   30.4964   38.6397   64.6619 C   0  0  0  0  0  0  0  0  0  0  0  0
   31.3904   37.6441   64.2751 C   0  0  0  0  0  0  0  0  0  0  0  0
   31.9542   33.8492   57.0516 N   0  0  0  0  0  0  0  0  0  0  0  0
   32.7034   34.5803   56.1308 C   0  0  0  0  0  0  0  0  0  0  0  0
   32.8500   34.1073   54.8316 C   0  0  0  0  0  0  0  0  0  0  0  0
   33.5961   34.8427   53.9278 C   0  0  0  0  0  0  0  0  0  0  0  0
   34.1723   36.0309   54.3564 C   0  0  0  0  0  0  0  0  0  0  0  0
   33.9897   36.4379   55.6631 C   0  0  0  0  0  0  0  0  0  0  0  0
   33.2688   35.7180   56.5014 N   0  0  0  0  0  0  0  0  0  0  0  0
   30.1661   34.1194   59.6631 H   0  0  0  0  0  0  0  0  0  0  0  0
   30.6128   32.6115   58.8295 H   0  0  0  0  0  0  0  0  0  0  0  0
   33.9885   38.4576   66.2999 H   0  0  0  0  0  0  0  0  0  0  0  0
   32.3988   40.2033   66.9663 H   0  0  0  0  0  0  0  0  0  0  0  0
   30.1724   40.3260   65.9274 H   0  0  0  0  0  0  0  0  0  0  0  0
   29.5180   38.6955   64.2080 H   0  0  0  0  0  0  0  0  0  0  0  0
   31.5380   33.0147   56.7846 H   0  0  0  0  0  0  0  0  0  0  0  0
   32.3875   33.1785   54.5319 H   0  0  0  0  0  0  0  0  0  0  0  0
   33.7270   34.5003   52.9120 H   0  0  0  0  0  0  0  0  0  0  0  0
   34.7609   36.6284   53.6761 H   0  0  0  0  0  0  0  0  0  0  0  0
   34.4393   37.3594   56.0022 H   0  0  0  0  0  0  0  0  0  0  0  0
  1  2  2  0  0  0  0
  2  3  1  0  0  0  0
  2 19  1  0  0  0  0
  3  4  1  0  0  0  0
  3 26  1  0  0  0  0
  3 27  1  0  0  0  0
  4  5  1  0  0  0  0
  5 10  2  0  0  0  0
  5  6  1  0  0  0  0
  6  7  2  0  0  0  0
  7  8  1  0  0  0  0
  8 18  1  0  0  0  0
  8  9  2  0  0  0  0
  9 10  1  0  0  0  0
  9 11  1  0  0  0  0
 11 12  1  0  0  0  0
 11 13  1  0  0  0  0
 13 18  2  0  0  0  0
 13 14  1  0  0  0  0
 14 15  2  0  0  0  0
 14 28  1  0  0  0  0
 15 16  1  0  0  0  0
 15 29  1  0  0  0  0
 16 17  2  0  0  0  0
 16 30  1  0  0  0  0
 17 18  1  0  0  0  0
 17 31  1  0  0  0  0
 19 20  1  0  0  0  0
 19 32  1  0  0  0  0
 20 25  2  0  0  0  0
 20 21  1  0  0  0  0
 21 22  2  0  0  0  0
 21 33  1  0  0  0  0
 22 23  1  0  0  0  0
 22 34  1  0  0  0  0
 23 24  2  0  0  0  0
 23 35  1  0  0  0  0
 24 25  1  0  0  0  0
 24 36  1  0  0  0  0
M  END
$$$$
