ZINC000000018527      none
 OpenBabel11202420153D

 39 41  0  0  0  0  0  0  0  0999 V2000
   32.2671   40.6421   67.7052 C   0  0  0  0  0  0  0  0  0  0  0  0
   30.8055   39.6063   67.4195 S   0  0  0  0  0  0  0  0  0  0  0  0
   30.7830   38.5142   68.3283 O   0  0  0  0  0  0  0  0  0  0  0  0
   29.6541   40.4139   67.2161 O   0  0  0  0  0  0  0  0  0  0  0  0
   31.0955   38.8599   65.8499 C   0  0  0  0  0  0  0  0  0  0  0  0
   30.6561   39.4873   64.6976 C   0  0  0  0  0  0  0  0  0  0  0  0
   30.8845   38.9119   63.4651 C   0  0  0  0  0  0  0  0  0  0  0  0
   31.5514   37.6867   63.3828 C   0  0  0  0  0  0  0  0  0  0  0  0
   31.7936   37.0621   62.0699 C   0  0  0  0  0  0  0  0  0  0  0  0
   31.3416   35.8557   61.7040 C   0  0  0  0  0  0  0  0  0  0  0  0
   30.5327   34.9676   62.5579 C   0  0  0  0  0  0  0  0  0  0  0  0
   31.0012   33.6926   62.8865 C   0  0  0  0  0  0  0  0  0  0  0  0
   30.2419   32.8684   63.6896 C   0  0  0  0  0  0  0  0  0  0  0  0
   29.0118   33.2979   64.1622 C   0  0  0  0  0  0  0  0  0  0  0  0
   28.2699   32.4834   64.9442 F   0  0  0  0  0  0  0  0  0  0  0  0
   28.5393   34.5594   63.8354 C   0  0  0  0  0  0  0  0  0  0  0  0
   29.2915   35.3949   63.0374 C   0  0  0  0  0  0  0  0  0  0  0  0
   31.7745   35.5329   60.2925 C   0  0  0  0  0  0  0  0  0  0  0  0
   32.2077   36.8879   59.6884 C   0  0  0  0  0  0  0  0  0  0  0  0
   32.5920   37.6909   60.9516 C   0  0  0  0  0  0  0  0  0  0  0  0
   31.9872   37.0563   64.5513 C   0  0  0  0  0  0  0  0  0  0  0  0
   31.7566   37.6466   65.7763 C   0  0  0  0  0  0  0  0  0  0  0  0
   33.1600   40.0169   67.7107 H   0  0  0  0  0  0  0  0  0  0  0  0
   32.1718   41.1479   68.6660 H   0  0  0  0  0  0  0  0  0  0  0  0
   32.3477   41.3839   66.9105 H   0  0  0  0  0  0  0  0  0  0  0  0
   30.1368   40.4321   64.7630 H   0  0  0  0  0  0  0  0  0  0  0  0
   30.5445   39.4046   62.5662 H   0  0  0  0  0  0  0  0  0  0  0  0
   31.9576   33.3551   62.5152 H   0  0  0  0  0  0  0  0  0  0  0  0
   30.6045   31.8842   63.9474 H   0  0  0  0  0  0  0  0  0  0  0  0
   27.5797   34.8882   64.2063 H   0  0  0  0  0  0  0  0  0  0  0  0
   28.9223   36.3773   62.7830 H   0  0  0  0  0  0  0  0  0  0  0  0
   30.9439   35.1132   59.7252 H   0  0  0  0  0  0  0  0  0  0  0  0
   32.6139   34.8378   60.3049 H   0  0  0  0  0  0  0  0  0  0  0  0
   31.3795   37.3623   59.1619 H   0  0  0  0  0  0  0  0  0  0  0  0
   33.0666   36.7643   59.0287 H   0  0  0  0  0  0  0  0  0  0  0  0
   32.3175   38.7390   60.8327 H   0  0  0  0  0  0  0  0  0  0  0  0
   33.6598   37.5997   61.1505 H   0  0  0  0  0  0  0  0  0  0  0  0
   32.5030   36.1090   64.4954 H   0  0  0  0  0  0  0  0  0  0  0  0
   32.0925   37.1604   66.6803 H   0  0  0  0  0  0  0  0  0  0  0  0
  1  2  1  0  0  0  0
  1 23  1  0  0  0  0
  1 24  1  0  0  0  0
  1 25  1  0  0  0  0
  2  3  2  0  0  0  0
  2  4  2  0  0  0  0
  2  5  1  0  0  0  0
  5 22  2  0  0  0  0
  5  6  1  0  0  0  0
  6  7  2  0  0  0  0
  6 26  1  0  0  0  0
  7  8  1  0  0  0  0
  7 27  1  0  0  0  0
  8  9  1  0  0  0  0
  8 21  2  0  0  0  0
  9 20  1  0  0  0  0
  9 10  2  0  0  0  0
 10 11  1  0  0  0  0
 10 18  1  0  0  0  0
 11 17  2  0  0  0  0
 11 12  1  0  0  0  0
 12 13  2  0  0  0  0
 12 28  1  0  0  0  0
 13 14  1  0  0  0  0
 13 29  1  0  0  0  0
 14 15  1  0  0  0  0
 14 16  2  0  0  0  0
 16 17  1  0  0  0  0
 16 30  1  0  0  0  0
 17 31  1  0  0  0  0
 18 19  1  0  0  0  0
 18 32  1  0  0  0  0
 18 33  1  0  0  0  0
 19 20  1  0  0  0  0
 19 34  1  0  0  0  0
 19 35  1  0  0  0  0
 20 36  1  0  0  0  0
 20 37  1  0  0  0  0
 21 22  1  0  0  0  0
 21 38  1  0  0  0  0
 22 39  1  0  0  0  0
M  END
$$$$
