ZINC000000047067      none
 OpenBabel11202420153D

 37 38  0  0  0  0  0  0  0  0999 V2000
   30.7918   40.3463   65.7305 C   0  0  0  0  0  0  0  0  0  0  0  0
   31.0056   38.8613   65.8722 C   0  0  0  0  0  0  0  0  0  0  0  0
   30.7639   38.3116   66.9265 O   0  0  0  0  0  0  0  0  0  0  0  0
   31.5056   38.0809   64.7361 C   0  0  0  0  0  0  0  0  0  0  0  0
   32.6748   37.3366   64.6973 C   0  0  0  0  0  0  0  0  0  0  0  0
   33.6633   37.1879   65.8251 C   0  0  0  0  0  0  0  0  0  0  0  0
   32.7790   36.7765   63.4836 N   0  0  0  0  0  0  0  0  0  0  0  0
   33.5068   36.2071   63.1889 H   0  0  0  0  0  0  0  0  0  0  0  0
   31.6871   37.1345   62.7212 C   0  0  0  0  0  0  0  0  0  0  0  0
   31.4336   36.7200   61.3373 C   0  0  0  0  0  0  0  0  0  0  0  0
   30.2914   36.6031   60.9373 O   0  0  0  0  0  0  0  0  0  0  0  0
   32.4676   36.4686   60.5086 O   0  0  0  0  0  0  0  0  0  0  0  0
   32.1420   36.0630   59.1530 C   0  0  0  0  0  0  0  0  0  0  0  0
   32.7249   37.0539   58.1785 C   0  0  0  0  0  0  0  0  0  0  0  0
   33.1136   36.6375   56.9188 C   0  0  0  0  0  0  0  0  0  0  0  0
   33.6438   37.5474   56.0233 C   0  0  0  0  0  0  0  0  0  0  0  0
   33.7951   38.8713   56.3909 C   0  0  0  0  0  0  0  0  0  0  0  0
   33.4112   39.2865   57.6524 C   0  0  0  0  0  0  0  0  0  0  0  0
   32.8761   38.3778   58.5461 C   0  0  0  0  0  0  0  0  0  0  0  0
   30.8860   37.9435   63.4711 C   0  0  0  0  0  0  0  0  0  0  0  0
   29.5875   38.5722   63.0358 C   0  0  0  0  0  0  0  0  0  0  0  0
   30.9754   40.6428   64.6978 H   0  0  0  0  0  0  0  0  0  0  0  0
   29.7656   40.5933   66.0024 H   0  0  0  0  0  0  0  0  0  0  0  0
   31.4798   40.8769   66.3887 H   0  0  0  0  0  0  0  0  0  0  0  0
   33.3380   36.3879   66.4902 H   0  0  0  0  0  0  0  0  0  0  0  0
   33.7219   38.1227   66.3826 H   0  0  0  0  0  0  0  0  0  0  0  0
   34.6450   36.9455   65.4181 H   0  0  0  0  0  0  0  0  0  0  0  0
   32.5592   35.0747   58.9594 H   0  0  0  0  0  0  0  0  0  0  0  0
   31.0591   36.0300   59.0337 H   0  0  0  0  0  0  0  0  0  0  0  0
   32.9996   35.6023   56.6332 H   0  0  0  0  0  0  0  0  0  0  0  0
   33.9441   37.2229   55.0379 H   0  0  0  0  0  0  0  0  0  0  0  0
   34.2134   39.5812   55.6929 H   0  0  0  0  0  0  0  0  0  0  0  0
   33.5297   40.3209   57.9398 H   0  0  0  0  0  0  0  0  0  0  0  0
   32.5766   38.7020   59.5318 H   0  0  0  0  0  0  0  0  0  0  0  0
   29.7871   39.5469   62.5904 H   0  0  0  0  0  0  0  0  0  0  0  0
   29.1011   37.9301   62.3016 H   0  0  0  0  0  0  0  0  0  0  0  0
   28.9352   38.6946   63.9003 H   0  0  0  0  0  0  0  0  0  0  0  0
  1  2  1  0  0  0  0
  1 22  1  0  0  0  0
  1 23  1  0  0  0  0
  1 24  1  0  0  0  0
  2  3  2  0  0  0  0
  2  4  1  0  0  0  0
  4 20  1  0  0  0  0
  4  5  2  0  0  0  0
  5  6  1  0  0  0  0
  5  7  1  0  0  0  0
  6 25  1  0  0  0  0
  6 26  1  0  0  0  0
  6 27  1  0  0  0  0
  7  8  1  0  0  0  0
  7  9  1  0  0  0  0
  9 10  1  0  0  0  0
  9 20  2  0  0  0  0
 10 11  2  0  0  0  0
 10 12  1  0  0  0  0
 12 13  1  0  0  0  0
 13 14  1  0  0  0  0
 13 28  1  0  0  0  0
 13 29  1  0  0  0  0
 14 19  2  0  0  0  0
 14 15  1  0  0  0  0
 15 16  2  0  0  0  0
 15 30  1  0  0  0  0
 16 17  1  0  0  0  0
 16 31  1  0  0  0  0
 17 18  2  0  0  0  0
 17 32  1  0  0  0  0
 18 19  1  0  0  0  0
 18 33  1  0  0  0  0
 19 34  1  0  0  0  0
 20 21  1  0  0  0  0
 21 35  1  0  0  0  0
 21 36  1  0  0  0  0
 21 37  1  0  0  0  0
M  END
$$$$
