ZINC000000002416      none
 OpenBabel11202420153D

 28 30  0  0  0  0  0  0  0  0999 V2000
   31.3941   39.7650   65.4316 C   0  0  0  0  0  0  0  0  0  0  0  0
   31.8750   38.5486   65.6078 C   0  0  0  0  0  0  0  0  0  0  0  0
   32.1338   37.7164   64.4228 C   0  0  0  0  0  0  0  0  0  0  0  0
   31.2470   37.3260   63.5217 N   0  0  0  0  0  0  0  0  0  0  0  0
   31.9362   36.5950   62.6327 C   0  0  0  0  0  0  0  0  0  0  0  0
   31.3739   35.9249   61.4056 C   0  0  0  0  0  0  0  0  0  0  0  0
   31.5432   36.6458   60.0668 C   0  0  0  0  0  0  0  0  0  0  0  0
   30.1671   36.5816   60.7325 C   0  0  0  0  0  0  0  0  0  0  0  0
   33.1764   36.5644   63.0238 N   0  0  0  0  0  0  0  0  0  0  0  0
   33.3152   37.1998   64.0475 O   0  0  0  0  0  0  0  0  0  0  0  0
   32.1754   37.9791   66.9643 C   0  0  0  0  0  0  0  0  0  0  0  0
   32.2798   39.0535   67.9585 N   0  3  0  0  0  0  0  0  0  0  0  0
   32.3584   38.6530   68.8812 H   0  0  0  0  0  0  0  0  0  0  0  0
   33.0948   39.6155   67.7639 H   0  0  0  0  0  0  0  0  0  0  0  0
   31.0726   39.8918   67.8866 C   0  0  0  0  0  0  0  0  0  0  0  0
   31.1098   40.6914   66.5819 C   0  0  0  0  0  0  0  0  0  0  0  0
   31.1978   40.1071   64.4261 H   0  0  0  0  0  0  0  0  0  0  0  0
   31.4220   34.8359   61.4009 H   0  0  0  0  0  0  0  0  0  0  0  0
   32.0613   37.6048   60.0735 H   0  0  0  0  0  0  0  0  0  0  0  0
   31.7029   36.0311   59.1809 H   0  0  0  0  0  0  0  0  0  0  0  0
   29.4214   35.9248   60.2845 H   0  0  0  0  0  0  0  0  0  0  0  0
   29.7797   37.4982   61.1774 H   0  0  0  0  0  0  0  0  0  0  0  0
   31.3764   37.2964   67.2537 H   0  0  0  0  0  0  0  0  0  0  0  0
   33.1171   37.4315   66.9249 H   0  0  0  0  0  0  0  0  0  0  0  0
   30.1858   39.2581   67.9024 H   0  0  0  0  0  0  0  0  0  0  0  0
   31.0516   40.5762   68.7347 H   0  0  0  0  0  0  0  0  0  0  0  0
   30.1469   41.1779   66.4267 H   0  0  0  0  0  0  0  0  0  0  0  0
   31.8929   41.4472   66.6414 H   0  0  0  0  0  0  0  0  0  0  0  0
  1 16  1  0  0  0  0
  1  2  2  0  0  0  0
  1 17  1  0  0  0  0
  2  3  1  0  0  0  0
  2 11  1  0  0  0  0
  3 10  1  0  0  0  0
  3  4  2  0  0  0  0
  4  5  1  0  0  0  0
  5  6  1  0  0  0  0
  5  9  2  0  0  0  0
  6  8  1  0  0  0  0
  6  7  1  0  0  0  0
  6 18  1  0  0  0  0
  7  8  1  0  0  0  0
  7 19  1  0  0  0  0
  7 20  1  0  0  0  0
  8 21  1  0  0  0  0
  8 22  1  0  0  0  0
  9 10  1  0  0  0  0
 11 12  1  0  0  0  0
 11 23  1  0  0  0  0
 11 24  1  0  0  0  0
 12 13  1  0  0  0  0
 12 14  1  0  0  0  0
 12 15  1  0  0  0  0
 15 16  1  0  0  0  0
 15 25  1  0  0  0  0
 15 26  1  0  0  0  0
 16 27  1  0  0  0  0
 16 28  1  0  0  0  0
M  CHG  1  12   1
M  END
$$$$
