ZINC000000029685      none
 OpenBabel11202420163D

 20 20  0  0  0  0  0  0  0  0999 V2000
   32.1372   36.9739   62.0748 C   0  0  0  0  0  0  0  0  0  0  0  0
   31.0820   38.1797   61.2243 S   0  0  0  0  0  0  0  0  0  0  0  0
   30.4048   39.0010   62.1656 O   0  0  0  0  0  0  0  0  0  0  0  0
   30.3814   37.5616   60.1537 O   0  0  0  0  0  0  0  0  0  0  0  0
   32.1458   39.2060   60.4778 N   0  0  0  0  0  0  0  0  0  0  0  0
   32.5840   38.9343   59.1763 C   0  0  0  0  0  0  0  0  0  0  0  0
   32.9251   39.9769   58.3258 C   0  0  0  0  0  0  0  0  0  0  0  0
   33.3520   39.7071   57.0397 C   0  0  0  0  0  0  0  0  0  0  0  0
   33.4401   38.3979   56.5979 C   0  0  0  0  0  0  0  0  0  0  0  0
   33.8584   38.1373   55.3399 F   0  0  0  0  0  0  0  0  0  0  0  0
   33.1009   37.3551   57.4433 C   0  0  0  0  0  0  0  0  0  0  0  0
   32.6730   37.6198   58.7314 C   0  0  0  0  0  0  0  0  0  0  0  0
   32.3413   36.6027   59.5564 F   0  0  0  0  0  0  0  0  0  0  0  0
   32.7750   37.4911   62.7916 H   0  0  0  0  0  0  0  0  0  0  0  0
   31.5129   36.2508   62.5993 H   0  0  0  0  0  0  0  0  0  0  0  0
   32.7582   36.4555   61.3441 H   0  0  0  0  0  0  0  0  0  0  0  0
   32.4654   39.9953   60.9422 H   0  0  0  0  0  0  0  0  0  0  0  0
   32.8565   40.9985   58.6691 H   0  0  0  0  0  0  0  0  0  0  0  0
   33.6173   40.5185   56.3782 H   0  0  0  0  0  0  0  0  0  0  0  0
   33.1707   36.3347   57.0967 H   0  0  0  0  0  0  0  0  0  0  0  0
  1  2  1  0  0  0  0
  1 14  1  0  0  0  0
  1 15  1  0  0  0  0
  1 16  1  0  0  0  0
  2  3  2  0  0  0  0
  2  4  2  0  0  0  0
  2  5  1  0  0  0  0
  5  6  1  0  0  0  0
  5 17  1  0  0  0  0
  6 12  2  0  0  0  0
  6  7  1  0  0  0  0
  7  8  2  0  0  0  0
  7 18  1  0  0  0  0
  8  9  1  0  0  0  0
  8 19  1  0  0  0  0
  9 10  1  0  0  0  0
  9 11  2  0  0  0  0
 11 12  1  0  0  0  0
 11 20  1  0  0  0  0
 12 13  1  0  0  0  0
M  END
$$$$
