ZINC000000034611      none
 OpenBabel11202420153D

 45 47  0  0  1  0  0  0  0  0999 V2000
   33.5203   33.8671   54.4541 C   0  0  0  0  0  0  0  0  0  0  0  0
   33.5239   35.2147   54.9292 O   0  0  0  0  0  0  0  0  0  0  0  0
   33.1135   35.4192   56.2095 C   0  0  0  0  0  0  0  0  0  0  0  0
   32.7171   34.3500   56.9910 C   0  0  0  0  0  0  0  0  0  0  0  0
   32.2965   34.5479   58.3008 C   0  0  0  0  0  0  0  0  0  0  0  0
   32.2676   35.8227   58.8216 C   0  0  0  0  0  0  0  0  0  0  0  0
   32.6638   36.9001   58.0406 C   0  0  0  0  0  0  0  0  0  0  0  0
   33.0908   36.7057   56.7396 C   0  0  0  0  0  0  0  0  0  0  0  0
   33.4820   37.7651   55.9820 O   0  0  0  0  0  0  0  0  0  0  0  0
   33.4313   39.0550   56.5951 C   0  0  0  0  0  0  0  0  0  0  0  0
   31.8096   36.1086   60.2301 C   0  0  1  0  0  0  0  0  0  0  0  0
   32.5383   36.7505   60.7252 H   0  0  0  0  0  0  0  0  0  0  0  0
   30.4533   36.8157   60.1907 C   0  0  0  0  0  0  0  0  0  0  0  0
   31.6826   34.8505   60.9734 N   0  0  0  0  0  0  0  0  0  0  0  0
   32.2552   34.7022   62.5202 S   0  0  0  0  0  0  0  0  0  0  0  0
   33.1115   33.5682   62.5242 O   0  0  0  0  0  0  0  0  0  0  0  0
   32.6807   35.9987   62.9166 O   0  0  0  0  0  0  0  0  0  0  0  0
   30.8831   34.2932   63.5473 C   0  0  0  0  0  0  0  0  0  0  0  0
   30.2881   33.0498   63.4429 C   0  0  0  0  0  0  0  0  0  0  0  0
   29.2144   32.7274   64.2517 C   0  0  0  0  0  0  0  0  0  0  0  0
   28.7296   33.6519   65.1579 C   0  0  0  0  0  0  0  0  0  0  0  0
   29.3216   34.8970   65.2588 C   0  0  0  0  0  0  0  0  0  0  0  0
   30.3980   35.2178   64.4532 C   0  0  0  0  0  0  0  0  0  0  0  0
   31.0260   33.7246   60.2884 C   0  0  0  0  0  0  0  0  0  0  0  0
   31.8936   33.3322   59.0937 C   0  0  0  0  0  0  0  0  0  0  0  0
   33.8688   33.8449   53.4215 H   0  0  0  0  0  0  0  0  0  0  0  0
   34.1817   33.2616   55.0738 H   0  0  0  0  0  0  0  0  0  0  0  0
   32.5078   33.4666   54.5045 H   0  0  0  0  0  0  0  0  0  0  0  0
   32.7342   33.3515   56.5798 H   0  0  0  0  0  0  0  0  0  0  0  0
   32.6413   37.8978   58.4534 H   0  0  0  0  0  0  0  0  0  0  0  0
   33.7688   39.8088   55.8839 H   0  0  0  0  0  0  0  0  0  0  0  0
   32.4073   39.2735   56.8976 H   0  0  0  0  0  0  0  0  0  0  0  0
   34.0794   39.0664   57.4715 H   0  0  0  0  0  0  0  0  0  0  0  0
   29.7242   36.1757   59.6940 H   0  0  0  0  0  0  0  0  0  0  0  0
   30.1218   37.0226   61.2082 H   0  0  0  0  0  0  0  0  0  0  0  0
   30.5479   37.7526   59.6418 H   0  0  0  0  0  0  0  0  0  0  0  0
   30.6642   32.3291   62.7321 H   0  0  0  0  0  0  0  0  0  0  0  0
   28.7521   31.7546   64.1731 H   0  0  0  0  0  0  0  0  0  0  0  0
   27.8886   33.4012   65.7875 H   0  0  0  0  0  0  0  0  0  0  0  0
   28.9428   35.6192   65.9669 H   0  0  0  0  0  0  0  0  0  0  0  0
   30.8603   36.1906   64.5317 H   0  0  0  0  0  0  0  0  0  0  0  0
   30.9348   32.8800   60.9714 H   0  0  0  0  0  0  0  0  0  0  0  0
   30.0376   34.0285   59.9436 H   0  0  0  0  0  0  0  0  0  0  0  0
   32.7893   32.8251   59.4523 H   0  0  0  0  0  0  0  0  0  0  0  0
   31.3320   32.6552   58.4499 H   0  0  0  0  0  0  0  0  0  0  0  0
  1  2  1  0  0  0  0
  1 26  1  0  0  0  0
  1 27  1  0  0  0  0
  1 28  1  0  0  0  0
  2  3  1  0  0  0  0
  3  8  2  0  0  0  0
  3  4  1  0  0  0  0
  4  5  2  0  0  0  0
  4 29  1  0  0  0  0
  5 25  1  0  0  0  0
  5  6  1  0  0  0  0
  6  7  2  0  0  0  0
  6 11  1  0  0  0  0
  7  8  1  0  0  0  0
  7 30  1  0  0  0  0
  8  9  1  0  0  0  0
  9 10  1  0  0  0  0
 10 31  1  0  0  0  0
 10 32  1  0  0  0  0
 10 33  1  0  0  0  0
 11 12  1  1  0  0  0
 11 13  1  0  0  0  0
 11 14  1  0  0  0  0
 13 34  1  0  0  0  0
 13 35  1  0  0  0  0
 13 36  1  0  0  0  0
 14 15  1  0  0  0  0
 14 24  1  0  0  0  0
 15 16  2  0  0  0  0
 15 17  2  0  0  0  0
 15 18  1  0  0  0  0
 18 23  2  0  0  0  0
 18 19  1  0  0  0  0
 19 20  2  0  0  0  0
 19 37  1  0  0  0  0
 20 21  1  0  0  0  0
 20 38  1  0  0  0  0
 21 22  2  0  0  0  0
 21 39  1  0  0  0  0
 22 23  1  0  0  0  0
 22 40  1  0  0  0  0
 23 41  1  0  0  0  0
 24 25  1  0  0  0  0
 24 42  1  0  0  0  0
 24 43  1  0  0  0  0
 25 44  1  0  0  0  0
 25 45  1  0  0  0  0
M  END
$$$$
