ZINC000000055140      none
 OpenBabel11202420153D

 22 23  0  0  0  0  0  0  0  0999 V2000
   33.5587   40.6464   58.8355 N   0  0  0  0  0  4  0  0  0  0  0  0
   33.4651   39.5754   57.9491 C   0  0  0  0  0  0  0  0  0  0  0  0
   32.7509   38.2920   58.1215 C   0  0  0  0  0  0  0  0  0  0  0  0
   31.9557   37.8224   59.2786 C   0  0  0  0  0  0  0  0  0  0  0  0
   31.3683   38.6242   59.9775 O   0  0  0  0  0  0  0  0  0  0  0  0
   31.8763   36.3795   59.5833 C   0  0  0  0  0  0  0  0  0  0  0  0
   32.5510   35.4548   58.7822 C   0  0  0  0  0  0  0  0  0  0  0  0
   32.4728   34.1090   59.0729 C   0  0  0  0  0  0  0  0  0  0  0  0
   31.7287   33.6737   60.1557 C   0  0  0  0  0  0  0  0  0  0  0  0
   31.0532   34.5835   60.9503 C   0  0  0  0  0  0  0  0  0  0  0  0
   31.1268   35.9327   60.6745 C   0  0  0  0  0  0  0  0  0  0  0  0
   32.9957   37.6737   56.9840 N   0  0  0  0  0  0  0  0  0  0  0  0
   33.6851   38.3792   56.2856 O   0  0  0  0  0  0  0  0  0  0  0  0
   33.9917   39.4512   56.7516 N   0  0  0  0  0  0  0  0  0  0  0  0
   34.7893   40.4259   56.1043 O   0  0  0  0  0  1  0  0  0  0  0  0
   33.1166   40.6024   59.6977 H   0  0  0  0  0  0  0  0  0  0  0  0
   34.0659   41.4360   58.5902 H   0  0  0  0  0  0  0  0  0  0  0  0
   33.1320   35.7931   57.9370 H   0  0  0  0  0  0  0  0  0  0  0  0
   32.9938   33.3930   58.4545 H   0  0  0  0  0  0  0  0  0  0  0  0
   31.6713   32.6185   60.3789 H   0  0  0  0  0  0  0  0  0  0  0  0
   30.4705   34.2363   61.7907 H   0  0  0  0  0  0  0  0  0  0  0  0
   30.6027   36.6419   61.2980 H   0  0  0  0  0  0  0  0  0  0  0  0
  1  2  2  0  0  0  0
  1 16  1  0  0  0  0
  1 17  1  0  0  0  0
  2 14  1  0  0  0  0
  2  3  1  0  0  0  0
  3  4  1  0  0  0  0
  3 12  2  0  0  0  0
  4  5  2  0  0  0  0
  4  6  1  0  0  0  0
  6 11  2  0  0  0  0
  6  7  1  0  0  0  0
  7  8  2  0  0  0  0
  7 18  1  0  0  0  0
  8  9  1  0  0  0  0
  8 19  1  0  0  0  0
  9 10  2  0  0  0  0
  9 20  1  0  0  0  0
 10 11  1  0  0  0  0
 10 21  1  0  0  0  0
 11 22  1  0  0  0  0
 12 13  1  0  0  0  0
 13 14  1  0  0  0  0
 14 15  1  0  0  0  0
M  END
$$$$
