ZINC000000008936      none
 OpenBabel11202420153D

 19 20  0  0  0  0  0  0  0  0999 V2000
   31.3236   37.3711   63.1006 Br  0  0  0  0  0  0  0  0  0  0  0  0
   31.8089   35.8783   62.0460 C   0  0  0  0  0  0  0  0  0  0  0  0
   32.4588   34.8263   62.5471 C   0  0  0  0  0  0  0  0  0  0  0  0
   32.7361   33.6435   61.2750 S   0  0  0  0  0  0  0  0  0  0  0  0
   31.9251   34.6717   60.1009 C   0  0  0  0  0  0  0  0  0  0  0  0
   31.5171   35.7941   60.6951 C   0  0  0  0  0  0  0  0  0  0  0  0
   30.7883   36.8851   59.9536 C   0  0  0  0  0  0  0  0  0  0  0  0
   31.7865   37.8655   59.3938 C   0  0  0  0  0  0  0  0  0  0  0  0
   32.3724   37.7941   58.1834 C   0  0  0  0  0  0  0  0  0  0  0  0
   33.1992   38.8799   58.0790 N   0  0  0  0  0  0  0  0  0  0  0  0
   33.7568   39.1079   57.3187 H   0  0  0  0  0  0  0  0  0  0  0  0
   33.0940   39.5746   59.2324 C   0  0  0  0  0  0  0  0  0  0  0  0
   32.2498   38.9602   60.0152 N   0  0  0  0  0  0  0  0  0  0  0  0
   32.7676   34.7176   63.5763 H   0  0  0  0  0  0  0  0  0  0  0  0
   31.7811   34.4317   59.0577 H   0  0  0  0  0  0  0  0  0  0  0  0
   30.1153   37.4022   60.6376 H   0  0  0  0  0  0  0  0  0  0  0  0
   30.2120   36.4478   59.1383 H   0  0  0  0  0  0  0  0  0  0  0  0
   32.2162   37.0298   57.4365 H   0  0  0  0  0  0  0  0  0  0  0  0
   33.6208   40.4875   59.4677 H   0  0  0  0  0  0  0  0  0  0  0  0
  1  2  1  0  0  0  0
  2  6  1  0  0  0  0
  2  3  2  0  0  0  0
  3  4  1  0  0  0  0
  3 14  1  0  0  0  0
  4  5  1  0  0  0  0
  5  6  2  0  0  0  0
  5 15  1  0  0  0  0
  6  7  1  0  0  0  0
  7  8  1  0  0  0  0
  7 16  1  0  0  0  0
  7 17  1  0  0  0  0
  8 13  1  0  0  0  0
  8  9  2  0  0  0  0
  9 10  1  0  0  0  0
  9 18  1  0  0  0  0
 10 11  1  0  0  0  0
 10 12  1  0  0  0  0
 12 13  2  0  0  0  0
 12 19  1  0  0  0  0
M  END
$$$$
