ZINC000000019038      none
 OpenBabel11202420153D

 37 38  0  0  1  0  0  0  0  0999 V2000
   31.7217   38.5855   68.7762 O   0  0  0  0  0  0  0  0  0  0  0  0
   32.3597   37.8294   68.0636 C   0  0  0  0  0  0  0  0  0  0  0  0
   33.4718   37.4639   68.4043 O   0  0  0  0  0  1  0  0  0  0  0  0
   31.7737   37.3467   66.7619 C   0  0  1  0  0  0  0  0  0  0  0  0
   30.7807   37.7761   66.6290 H   0  0  0  0  0  0  0  0  0  0  0  0
   32.6758   37.7802   65.6046 C   0  0  0  0  0  0  0  0  0  0  0  0
   31.8919   37.7493   64.3179 C   0  0  0  0  0  0  0  0  0  0  0  0
   31.8639   36.5981   63.5530 C   0  0  0  0  0  0  0  0  0  0  0  0
   31.1409   36.5683   62.3752 C   0  0  0  0  0  0  0  0  0  0  0  0
   30.4545   37.6930   61.9569 C   0  0  0  0  0  0  0  0  0  0  0  0
   30.4868   38.8458   62.7191 C   0  0  0  0  0  0  0  0  0  0  0  0
   31.2056   38.8740   63.8996 C   0  0  0  0  0  0  0  0  0  0  0  0
   31.6746   35.8812   66.7830 N   0  3  0  0  0  0  0  0  0  0  0  0
   32.4970   35.4949   67.2217 H   0  0  0  0  0  0  0  0  0  0  0  0
   31.6035   35.5352   65.8380 H   0  0  0  0  0  0  0  0  0  0  0  0
   30.4816   35.4822   67.5417 C   0  0  0  0  0  0  0  0  0  0  0  0
   30.3798   33.9787   67.5634 C   0  0  0  0  0  0  0  0  0  0  0  0
   29.6845   33.3183   66.5686 C   0  0  0  0  0  0  0  0  0  0  0  0
   29.5913   31.9391   66.5878 C   0  0  0  0  0  0  0  0  0  0  0  0
   30.1929   31.2171   67.6022 C   0  0  0  0  0  0  0  0  0  0  0  0
   30.8887   31.8726   68.5992 C   0  0  0  0  0  0  0  0  0  0  0  0
   30.9843   33.2567   68.5820 C   0  0  0  0  0  0  0  0  0  0  0  0
   31.6688   33.9039   69.5615 O   0  0  0  0  0  0  0  0  0  0  0  0
   33.0376   38.7924   65.7854 H   0  0  0  0  0  0  0  0  0  0  0  0
   33.5235   37.0992   65.5300 H   0  0  0  0  0  0  0  0  0  0  0  0
   32.4038   35.7209   63.8776 H   0  0  0  0  0  0  0  0  0  0  0  0
   31.1159   35.6678   61.7796 H   0  0  0  0  0  0  0  0  0  0  0  0
   29.8933   37.6711   61.0344 H   0  0  0  0  0  0  0  0  0  0  0  0
   29.9509   39.7245   62.3920 H   0  0  0  0  0  0  0  0  0  0  0  0
   31.2311   39.7748   64.4949 H   0  0  0  0  0  0  0  0  0  0  0  0
   29.5932   35.8996   67.0678 H   0  0  0  0  0  0  0  0  0  0  0  0
   30.5584   35.8559   68.5627 H   0  0  0  0  0  0  0  0  0  0  0  0
   29.2172   33.8798   65.7732 H   0  0  0  0  0  0  0  0  0  0  0  0
   29.0473   31.4248   65.8094 H   0  0  0  0  0  0  0  0  0  0  0  0
   30.1182   30.1398   67.6151 H   0  0  0  0  0  0  0  0  0  0  0  0
   31.3584   31.3082   69.3911 H   0  0  0  0  0  0  0  0  0  0  0  0
   32.0542   33.3165   70.2261 H   0  0  0  0  0  0  0  0  0  0  0  0
  1  2  2  0  0  0  0
  2  3  1  0  0  0  0
  2  4  1  0  0  0  0
  4  5  1  6  0  0  0
  4  6  1  0  0  0  0
  4 13  1  0  0  0  0
  6  7  1  0  0  0  0
  6 24  1  0  0  0  0
  6 25  1  0  0  0  0
  7 12  2  0  0  0  0
  7  8  1  0  0  0  0
  8  9  2  0  0  0  0
  8 26  1  0  0  0  0
  9 10  1  0  0  0  0
  9 27  1  0  0  0  0
 10 11  2  0  0  0  0
 10 28  1  0  0  0  0
 11 12  1  0  0  0  0
 11 29  1  0  0  0  0
 12 30  1  0  0  0  0
 13 14  1  0  0  0  0
 13 15  1  0  0  0  0
 13 16  1  0  0  0  0
 16 17  1  0  0  0  0
 16 31  1  0  0  0  0
 16 32  1  0  0  0  0
 17 22  2  0  0  0  0
 17 18  1  0  0  0  0
 18 19  2  0  0  0  0
 18 33  1  0  0  0  0
 19 20  1  0  0  0  0
 19 34  1  0  0  0  0
 20 21  2  0  0  0  0
 20 35  1  0  0  0  0
 21 22  1  0  0  0  0
 21 36  1  0  0  0  0
 22 23  1  0  0  0  0
 23 37  1  0  0  0  0
M  CHG  1  13   1
M  END
$$$$
