ZINC000000052434      none
 OpenBabel11202420153D

 33 34  0  0  0  0  0  0  0  0999 V2000
   28.4661   34.3430   64.8881 C   0  0  0  0  0  0  0  0  0  0  0  0
   29.7813   35.0739   64.9719 C   0  0  0  0  0  0  0  0  0  0  0  0
   30.4525   35.1510   66.1801 C   0  0  0  0  0  0  0  0  0  0  0  0
   31.6584   35.8241   66.2683 C   0  0  0  0  0  0  0  0  0  0  0  0
   32.2060   36.4148   65.1489 C   0  0  0  0  0  0  0  0  0  0  0  0
   33.5218   37.1428   65.2460 C   0  0  0  0  0  0  0  0  0  0  0  0
   31.5340   36.3415   63.9248 C   0  0  0  0  0  0  0  0  0  0  0  0
   32.1084   36.9744   62.7267 C   0  0  0  0  0  0  0  0  0  0  0  0
   33.1968   36.6274   62.3204 O   0  0  0  0  0  0  0  0  0  0  0  0
   31.3437   38.0537   62.0047 C   0  0  0  0  0  0  0  0  0  0  0  0
   32.1160   38.5140   60.8646 O   0  0  0  0  0  0  0  0  0  0  0  0
   31.9188   37.8763   59.6948 C   0  0  0  0  0  0  0  0  0  0  0  0
   31.1236   36.9610   59.6289 O   0  0  0  0  0  0  0  0  0  0  0  0
   32.6712   38.2913   58.4896 C   0  0  0  0  0  0  0  0  0  0  0  0
   33.0564   37.5587   57.4665 N   0  0  0  0  0  0  0  0  0  0  0  0
   33.6470   38.2556   56.6750 O   0  0  0  0  0  0  0  0  0  0  0  0
   33.7636   39.4204   56.9750 N   0  0  0  0  0  0  0  0  0  0  0  0
   33.1856   39.6337   58.1347 C   0  0  0  0  0  0  0  0  0  0  0  0
   33.0834   40.8194   58.8487 N   0  0  0  0  0  0  0  0  0  0  0  0
   30.3130   35.6638   63.8450 C   0  0  0  0  0  0  0  0  0  0  0  0
   27.6507   35.0378   65.0892 H   0  0  0  0  0  0  0  0  0  0  0  0
   28.3471   33.9224   63.8896 H   0  0  0  0  0  0  0  0  0  0  0  0
   28.4491   33.5399   65.6248 H   0  0  0  0  0  0  0  0  0  0  0  0
   30.0307   34.6871   67.0595 H   0  0  0  0  0  0  0  0  0  0  0  0
   32.1741   35.8833   67.2155 H   0  0  0  0  0  0  0  0  0  0  0  0
   33.3382   38.2097   65.3736 H   0  0  0  0  0  0  0  0  0  0  0  0
   34.0833   36.7661   66.1010 H   0  0  0  0  0  0  0  0  0  0  0  0
   34.0957   36.9794   64.3339 H   0  0  0  0  0  0  0  0  0  0  0  0
   30.3897   37.6547   61.6600 H   0  0  0  0  0  0  0  0  0  0  0  0
   31.1648   38.8880   62.6831 H   0  0  0  0  0  0  0  0  0  0  0  0
   32.6240   40.8331   59.7029 H   0  0  0  0  0  0  0  0  0  0  0  0
   33.4714   41.6345   58.4936 H   0  0  0  0  0  0  0  0  0  0  0  0
   29.7882   35.6026   62.9029 H   0  0  0  0  0  0  0  0  0  0  0  0
  1  2  1  0  0  0  0
  1 21  1  0  0  0  0
  1 22  1  0  0  0  0
  1 23  1  0  0  0  0
  2 20  2  0  0  0  0
  2  3  1  0  0  0  0
  3  4  2  0  0  0  0
  3 24  1  0  0  0  0
  4  5  1  0  0  0  0
  4 25  1  0  0  0  0
  5  6  1  0  0  0  0
  5  7  2  0  0  0  0
  6 26  1  0  0  0  0
  6 27  1  0  0  0  0
  6 28  1  0  0  0  0
  7  8  1  0  0  0  0
  7 20  1  0  0  0  0
  8  9  2  0  0  0  0
  8 10  1  0  0  0  0
 10 11  1  0  0  0  0
 10 29  1  0  0  0  0
 10 30  1  0  0  0  0
 11 12  1  0  0  0  0
 12 13  2  0  0  0  0
 12 14  1  0  0  0  0
 14 18  1  0  0  0  0
 14 15  2  0  0  0  0
 15 16  1  0  0  0  0
 16 17  1  0  0  0  0
 17 18  2  0  0  0  0
 18 19  1  0  0  0  0
 19 31  1  0  0  0  0
 19 32  1  0  0  0  0
 20 33  1  0  0  0  0
M  END
$$$$
