ZINC000000021268      none
 OpenBabel11202420153D

 31 33  0  0  0  0  0  0  0  0999 V2000
   32.6571   34.4325   57.8458 O   0  0  0  0  0  0  0  0  0  0  0  0
   32.4977   35.4311   58.5216 C   0  0  0  0  0  0  0  0  0  0  0  0
   32.0933   35.3096   59.9230 C   0  0  0  0  0  0  0  0  0  0  0  0
   31.8451   33.7345   60.6093 Cl  0  0  0  0  0  0  0  0  0  0  0  0
   31.9100   36.4092   60.6913 C   0  0  0  0  0  0  0  0  0  0  0  0
   31.5283   36.2657   62.0096 N   0  0  0  0  0  0  0  0  0  0  0  0
   32.5311   36.1407   63.0793 C   0  0  0  0  0  0  0  0  0  0  0  0
   32.1860   37.1561   64.1806 C   0  0  0  0  0  0  0  0  0  0  0  0
   30.8207   36.9823   64.5675 O   0  0  0  0  0  0  0  0  0  0  0  0
   29.8795   37.2327   63.5210 C   0  0  0  0  0  0  0  0  0  0  0  0
   30.1064   36.2269   62.3866 C   0  0  0  0  0  0  0  0  0  0  0  0
   32.1157   37.7655   60.1303 C   0  0  0  0  0  0  0  0  0  0  0  0
   31.9489   38.7463   60.8266 O   0  0  0  0  0  0  0  0  0  0  0  0
   32.5247   37.9172   58.7174 C   0  0  0  0  0  0  0  0  0  0  0  0
   32.7251   39.1773   58.1655 C   0  0  0  0  0  0  0  0  0  0  0  0
   33.1099   39.2944   56.8392 C   0  0  0  0  0  0  0  0  0  0  0  0
   33.2943   38.1669   56.0624 C   0  0  0  0  0  0  0  0  0  0  0  0
   33.0976   36.9036   56.5992 C   0  0  0  0  0  0  0  0  0  0  0  0
   32.7125   36.7699   57.9266 C   0  0  0  0  0  0  0  0  0  0  0  0
   32.5085   35.1303   63.4874 H   0  0  0  0  0  0  0  0  0  0  0  0
   33.5226   36.3537   62.6796 H   0  0  0  0  0  0  0  0  0  0  0  0
   32.3318   38.1686   63.8044 H   0  0  0  0  0  0  0  0  0  0  0  0
   32.8324   36.9913   65.0425 H   0  0  0  0  0  0  0  0  0  0  0  0
   30.0168   38.2456   63.1426 H   0  0  0  0  0  0  0  0  0  0  0  0
   28.8662   37.1228   63.9077 H   0  0  0  0  0  0  0  0  0  0  0  0
   29.4915   36.4970   61.5281 H   0  0  0  0  0  0  0  0  0  0  0  0
   29.8438   35.2251   62.7262 H   0  0  0  0  0  0  0  0  0  0  0  0
   32.5826   40.0619   58.7685 H   0  0  0  0  0  0  0  0  0  0  0  0
   33.2665   40.2731   56.4102 H   0  0  0  0  0  0  0  0  0  0  0  0
   33.5981   38.2699   55.0311 H   0  0  0  0  0  0  0  0  0  0  0  0
   33.2430   36.0262   55.9866 H   0  0  0  0  0  0  0  0  0  0  0  0
  1  2  2  0  0  0  0
  2 19  1  0  0  0  0
  2  3  1  0  0  0  0
  3  4  1  0  0  0  0
  3  5  2  0  0  0  0
  5  6  1  0  0  0  0
  5 12  1  0  0  0  0
  6 11  1  0  0  0  0
  6  7  1  0  0  0  0
  7  8  1  0  0  0  0
  7 20  1  0  0  0  0
  7 21  1  0  0  0  0
  8  9  1  0  0  0  0
  8 22  1  0  0  0  0
  8 23  1  0  0  0  0
  9 10  1  0  0  0  0
 10 11  1  0  0  0  0
 10 24  1  0  0  0  0
 10 25  1  0  0  0  0
 11 26  1  0  0  0  0
 11 27  1  0  0  0  0
 12 13  2  0  0  0  0
 12 14  1  0  0  0  0
 14 19  2  0  0  0  0
 14 15  1  0  0  0  0
 15 16  2  0  0  0  0
 15 28  1  0  0  0  0
 16 17  1  0  0  0  0
 16 29  1  0  0  0  0
 17 18  2  0  0  0  0
 17 30  1  0  0  0  0
 18 19  1  0  0  0  0
 18 31  1  0  0  0  0
M  END
$$$$
