ZINC000000055186      none
 OpenBabel11202420153D

 38 41  0  0  0  0  0  0  0  0999 V2000
   32.4516   34.2482   58.2400 O   0  0  0  0  0  0  0  0  0  0  0  0
   32.7099   35.3698   57.8525 C   0  0  0  0  0  0  0  0  0  0  0  0
   33.2546   35.7194   56.5238 C   0  0  0  0  0  0  0  0  0  0  0  0
   33.6255   34.9881   55.4069 C   0  0  0  0  0  0  0  0  0  0  0  0
   34.1232   35.6427   54.2909 C   0  0  0  0  0  0  0  0  0  0  0  0
   34.2567   37.0185   54.2871 C   0  0  0  0  0  0  0  0  0  0  0  0
   33.8951   37.7628   55.3991 C   0  0  0  0  0  0  0  0  0  0  0  0
   33.3961   37.1221   56.5218 C   0  0  0  0  0  0  0  0  0  0  0  0
   32.9247   37.5778   57.8466 C   0  0  0  0  0  0  0  0  0  0  0  0
   32.8879   38.7303   58.2279 O   0  0  0  0  0  0  0  0  0  0  0  0
   32.5440   36.5024   58.5594 N   0  0  0  0  0  0  0  0  0  0  0  0
   32.0413   36.5548   59.8666 C   0  0  0  0  0  0  0  0  0  0  0  0
   31.3395   37.6725   60.2976 C   0  0  0  0  0  0  0  0  0  0  0  0
   30.8404   37.7189   61.5847 C   0  0  0  0  0  0  0  0  0  0  0  0
   31.0493   36.6586   62.4473 C   0  0  0  0  0  0  0  0  0  0  0  0
   30.5092   36.7152   63.8530 C   0  0  0  0  0  0  0  0  0  0  0  0
   31.5403   37.3318   64.7629 C   0  0  0  0  0  0  0  0  0  0  0  0
   32.4757   36.5420   65.4135 C   0  0  0  0  0  0  0  0  0  0  0  0
   33.4088   37.1432   66.2371 C   0  0  0  0  0  0  0  0  0  0  0  0
   33.4095   38.4500   66.4141 N   0  0  0  0  0  0  0  0  0  0  0  0
   32.5322   39.2313   65.8153 C   0  0  0  0  0  0  0  0  0  0  0  0
   31.5723   38.7018   64.9737 C   0  0  0  0  0  0  0  0  0  0  0  0
   31.7525   35.5462   62.0226 C   0  0  0  0  0  0  0  0  0  0  0  0
   32.2491   35.4916   60.7349 C   0  0  0  0  0  0  0  0  0  0  0  0
   33.5231   33.9129   55.4041 H   0  0  0  0  0  0  0  0  0  0  0  0
   34.4090   35.0737   53.4186 H   0  0  0  0  0  0  0  0  0  0  0  0
   34.6457   37.5170   53.4116 H   0  0  0  0  0  0  0  0  0  0  0  0
   34.0016   38.8375   55.3905 H   0  0  0  0  0  0  0  0  0  0  0  0
   31.1804   38.5031   59.6258 H   0  0  0  0  0  0  0  0  0  0  0  0
   30.2906   38.5861   61.9191 H   0  0  0  0  0  0  0  0  0  0  0  0
   29.6022   37.3194   63.8697 H   0  0  0  0  0  0  0  0  0  0  0  0
   30.2799   35.7061   64.1952 H   0  0  0  0  0  0  0  0  0  0  0  0
   32.4774   35.4708   65.2761 H   0  0  0  0  0  0  0  0  0  0  0  0
   34.1430   36.5353   66.7449 H   0  0  0  0  0  0  0  0  0  0  0  0
   32.5639   40.2974   65.9847 H   0  0  0  0  0  0  0  0  0  0  0  0
   30.8561   39.3469   64.4867 H   0  0  0  0  0  0  0  0  0  0  0  0
   31.9138   34.7195   62.6985 H   0  0  0  0  0  0  0  0  0  0  0  0
   32.7987   34.6229   60.4040 H   0  0  0  0  0  0  0  0  0  0  0  0
  1  2  2  0  0  0  0
  2 11  1  0  0  0  0
  2  3  1  0  0  0  0
  3  8  2  0  0  0  0
  3  4  1  0  0  0  0
  4  5  2  0  0  0  0
  4 25  1  0  0  0  0
  5  6  1  0  0  0  0
  5 26  1  0  0  0  0
  6  7  2  0  0  0  0
  6 27  1  0  0  0  0
  7  8  1  0  0  0  0
  7 28  1  0  0  0  0
  8  9  1  0  0  0  0
  9 10  2  0  0  0  0
  9 11  1  0  0  0  0
 11 12  1  0  0  0  0
 12 24  2  0  0  0  0
 12 13  1  0  0  0  0
 13 14  2  0  0  0  0
 13 29  1  0  0  0  0
 14 15  1  0  0  0  0
 14 30  1  0  0  0  0
 15 16  1  0  0  0  0
 15 23  2  0  0  0  0
 16 17  1  0  0  0  0
 16 31  1  0  0  0  0
 16 32  1  0  0  0  0
 17 22  2  0  0  0  0
 17 18  1  0  0  0  0
 18 19  2  0  0  0  0
 18 33  1  0  0  0  0
 19 20  1  0  0  0  0
 19 34  1  0  0  0  0
 20 21  2  0  0  0  0
 21 22  1  0  0  0  0
 21 35  1  0  0  0  0
 22 36  1  0  0  0  0
 23 24  1  0  0  0  0
 23 37  1  0  0  0  0
 24 38  1  0  0  0  0
M  END
$$$$
