ZINC000000054870      none
 OpenBabel11202420153D

 33 35  0  0  0  0  0  0  0  0999 V2000
   34.9571   32.3184   55.0531 C   0  0  0  0  0  0  0  0  0  0  0  0
   34.3437   33.4092   55.8928 C   0  0  0  0  0  0  0  0  0  0  0  0
   34.5163   33.4204   57.0887 O   0  0  0  0  0  0  0  0  0  0  0  0
   33.6056   34.3686   55.3121 O   0  0  0  0  0  0  0  0  0  0  0  0
   33.6036   35.5912   55.9072 C   0  0  0  0  0  0  0  0  0  0  0  0
   34.0531   36.7057   55.2063 C   0  0  0  0  0  0  0  0  0  0  0  0
   34.0489   37.9522   55.7937 C   0  0  0  0  0  0  0  0  0  0  0  0
   33.6063   38.1033   57.1025 C   0  0  0  0  0  0  0  0  0  0  0  0
   33.5044   39.1709   57.9225 O   0  0  0  0  0  0  0  0  0  0  0  0
   33.0129   38.8230   59.1167 C   0  0  0  0  0  0  0  0  0  0  0  0
   32.7626   37.4834   59.1410 C   0  0  0  0  0  0  0  0  0  0  0  0
   32.2197   36.7022   60.2609 C   0  0  0  0  0  0  0  0  0  0  0  0
   32.0471   35.5040   60.1395 O   0  0  0  0  0  0  0  0  0  0  0  0
   31.8831   37.3721   61.5347 C   0  0  0  0  0  0  0  0  0  0  0  0
   32.5161   36.9864   62.7182 C   0  0  0  0  0  0  0  0  0  0  0  0
   32.1982   37.6154   63.9033 C   0  0  0  0  0  0  0  0  0  0  0  0
   31.2525   38.6271   63.9219 C   0  0  0  0  0  0  0  0  0  0  0  0
   30.8571   39.4138   65.4179 Cl  0  0  0  0  0  0  0  0  0  0  0  0
   30.6173   39.0109   62.7518 C   0  0  0  0  0  0  0  0  0  0  0  0
   30.9311   38.3936   61.5595 C   0  0  0  0  0  0  0  0  0  0  0  0
   33.1566   36.9793   57.8099 C   0  0  0  0  0  0  0  0  0  0  0  0
   33.1549   35.7252   57.2087 C   0  0  0  0  0  0  0  0  0  0  0  0
   34.6941   32.4740   54.0068 H   0  0  0  0  0  0  0  0  0  0  0  0
   36.0414   32.3420   55.1626 H   0  0  0  0  0  0  0  0  0  0  0  0
   34.5796   31.3506   55.3828 H   0  0  0  0  0  0  0  0  0  0  0  0
   34.4021   36.5941   54.1904 H   0  0  0  0  0  0  0  0  0  0  0  0
   34.4021   38.8103   55.2411 H   0  0  0  0  0  0  0  0  0  0  0  0
   32.8399   39.5019   59.9386 H   0  0  0  0  0  0  0  0  0  0  0  0
   33.2529   36.1969   62.7054 H   0  0  0  0  0  0  0  0  0  0  0  0
   32.6871   37.3180   64.8193 H   0  0  0  0  0  0  0  0  0  0  0  0
   29.8778   39.7976   62.7731 H   0  0  0  0  0  0  0  0  0  0  0  0
   30.4384   38.6963   60.6473 H   0  0  0  0  0  0  0  0  0  0  0  0
   32.8057   34.8613   57.7549 H   0  0  0  0  0  0  0  0  0  0  0  0
  1  2  1  0  0  0  0
  1 23  1  0  0  0  0
  1 24  1  0  0  0  0
  1 25  1  0  0  0  0
  2  3  2  0  0  0  0
  2  4  1  0  0  0  0
  4  5  1  0  0  0  0
  5 22  2  0  0  0  0
  5  6  1  0  0  0  0
  6  7  2  0  0  0  0
  6 26  1  0  0  0  0
  7  8  1  0  0  0  0
  7 27  1  0  0  0  0
  8 21  2  0  0  0  0
  8  9  1  0  0  0  0
  9 10  1  0  0  0  0
 10 11  2  0  0  0  0
 10 28  1  0  0  0  0
 11 12  1  0  0  0  0
 11 21  1  0  0  0  0
 12 13  2  0  0  0  0
 12 14  1  0  0  0  0
 14 20  2  0  0  0  0
 14 15  1  0  0  0  0
 15 16  2  0  0  0  0
 15 29  1  0  0  0  0
 16 17  1  0  0  0  0
 16 30  1  0  0  0  0
 17 18  1  0  0  0  0
 17 19  2  0  0  0  0
 19 20  1  0  0  0  0
 19 31  1  0  0  0  0
 20 32  1  0  0  0  0
 21 22  1  0  0  0  0
 22 33  1  0  0  0  0
M  END
$$$$
