ZINC000000026752      none
 OpenBabel11202420153D

 41 42  0  0  1  0  0  0  0  0999 V2000
   34.0944   43.1738   68.1976 C   0  0  0  0  0  0  0  0  0  0  0  0
   33.5938   42.7558   66.8134 C   0  0  0  0  0  0  0  0  0  0  0  0
   32.2022   42.3512   66.9038 O   0  0  0  0  0  0  0  0  0  0  0  0
   31.9586   41.0504   67.1590 C   0  0  0  0  0  0  0  0  0  0  0  0
   32.8838   40.2754   67.3023 O   0  0  0  0  0  0  0  0  0  0  0  0
   30.5741   40.5691   67.2641 C   0  0  0  0  0  0  0  0  0  0  0  0
   29.6573   41.4075   67.6996 C   0  0  0  0  0  0  0  0  0  0  0  0
   28.2069   41.0526   67.8526 C   0  0  0  0  0  0  0  0  0  0  0  0
   28.0307   39.5343   67.8412 C   0  0  0  0  0  0  0  0  0  0  0  0
   28.7861   38.9618   66.6356 C   0  0  0  0  0  0  0  0  0  0  0  0
   30.2865   39.1500   66.8684 C   0  0  1  0  0  0  0  0  0  0  0  0
   30.6159   38.4797   67.6623 H   0  0  0  0  0  0  0  0  0  0  0  0
   31.1827   38.7585   65.3407 S   0  0  0  0  0  0  0  0  0  0  0  0
   31.1164   39.8841   64.4757 O   0  0  0  0  0  0  0  0  0  0  0  0
   32.4526   38.2222   65.6852 O   0  0  0  0  0  0  0  0  0  0  0  0
   30.1655   37.4303   64.6394 C   0  0  0  0  0  0  0  0  0  0  0  0
   30.7693   36.9687   63.3382 C   0  0  0  0  0  0  0  0  0  0  0  0
   31.7029   35.9494   63.3329 C   0  0  0  0  0  0  0  0  0  0  0  0
   32.2533   35.5212   62.1398 C   0  0  0  0  0  0  0  0  0  0  0  0
   31.8783   36.1207   60.9491 C   0  0  0  0  0  0  0  0  0  0  0  0
   32.4203   35.7054   59.7833 F   0  0  0  0  0  0  0  0  0  0  0  0
   30.9479   37.1453   60.9537 C   0  0  0  0  0  0  0  0  0  0  0  0
   30.3931   37.5696   62.1489 C   0  0  0  0  0  0  0  0  0  0  0  0
   29.4850   38.5699   62.1550 F   0  0  0  0  0  0  0  0  0  0  0  0
   35.1107   43.5590   68.1153 H   0  0  0  0  0  0  0  0  0  0  0  0
   33.4431   43.9494   68.6004 H   0  0  0  0  0  0  0  0  0  0  0  0
   34.0859   42.3104   68.8628 H   0  0  0  0  0  0  0  0  0  0  0  0
   34.1918   41.9213   66.4474 H   0  0  0  0  0  0  0  0  0  0  0  0
   33.6839   43.5966   66.1255 H   0  0  0  0  0  0  0  0  0  0  0  0
   29.9674   42.4072   67.9662 H   0  0  0  0  0  0  0  0  0  0  0  0
   27.8341   41.4544   68.7948 H   0  0  0  0  0  0  0  0  0  0  0  0
   27.6401   41.4850   67.0282 H   0  0  0  0  0  0  0  0  0  0  0  0
   26.9719   39.2882   67.7605 H   0  0  0  0  0  0  0  0  0  0  0  0
   28.4356   39.1123   68.7610 H   0  0  0  0  0  0  0  0  0  0  0  0
   28.4868   39.4912   65.7309 H   0  0  0  0  0  0  0  0  0  0  0  0
   28.5623   37.9003   66.5297 H   0  0  0  0  0  0  0  0  0  0  0  0
   30.1266   36.5949   65.3384 H   0  0  0  0  0  0  0  0  0  0  0  0
   29.1564   37.8014   64.4602 H   0  0  0  0  0  0  0  0  0  0  0  0
   31.9994   35.4844   64.2615 H   0  0  0  0  0  0  0  0  0  0  0  0
   32.9796   34.7219   62.1365 H   0  0  0  0  0  0  0  0  0  0  0  0
   30.6546   37.6132   60.0255 H   0  0  0  0  0  0  0  0  0  0  0  0
  1  2  1  0  0  0  0
  1 25  1  0  0  0  0
  1 26  1  0  0  0  0
  1 27  1  0  0  0  0
  2  3  1  0  0  0  0
  2 28  1  0  0  0  0
  2 29  1  0  0  0  0
  3  4  1  0  0  0  0
  4  5  2  0  0  0  0
  4  6  1  0  0  0  0
  6 11  1  0  0  0  0
  6  7  2  0  0  0  0
  7  8  1  0  0  0  0
  7 30  1  0  0  0  0
  8  9  1  0  0  0  0
  8 31  1  0  0  0  0
  8 32  1  0  0  0  0
  9 10  1  0  0  0  0
  9 33  1  0  0  0  0
  9 34  1  0  0  0  0
 10 11  1  0  0  0  0
 10 35  1  0  0  0  0
 10 36  1  0  0  0  0
 11 12  1  1  0  0  0
 11 13  1  0  0  0  0
 13 14  2  0  0  0  0
 13 15  2  0  0  0  0
 13 16  1  0  0  0  0
 16 17  1  0  0  0  0
 16 37  1  0  0  0  0
 16 38  1  0  0  0  0
 17 23  2  0  0  0  0
 17 18  1  0  0  0  0
 18 19  2  0  0  0  0
 18 39  1  0  0  0  0
 19 20  1  0  0  0  0
 19 40  1  0  0  0  0
 20 21  1  0  0  0  0
 20 22  2  0  0  0  0
 22 23  1  0  0  0  0
 22 41  1  0  0  0  0
 23 24  1  0  0  0  0
M  END
$$$$
