ZINC000000056295      none
 OpenBabel11202420153D

 29 32  0  0  0  0  0  0  0  0999 V2000
   33.4917   39.6708   57.5908 C   0  0  0  0  0  0  0  0  0  0  0  0
   33.1115   39.7935   58.9212 C   0  0  0  0  0  0  0  0  0  0  0  0
   32.6823   38.7035   59.6251 C   0  0  0  0  0  0  0  0  0  0  0  0
   32.6249   37.4595   59.0060 C   0  0  0  0  0  0  0  0  0  0  0  0
   33.0083   37.3285   57.6600 C   0  0  0  0  0  0  0  0  0  0  0  0
   33.4447   38.4619   56.9607 C   0  0  0  0  0  0  0  0  0  0  0  0
   32.8575   36.0341   57.3156 N   0  0  0  0  0  0  0  0  0  0  0  0
   32.4241   35.3530   58.3172 N   0  0  0  0  0  0  0  0  0  0  0  0
   32.2511   36.2030   59.4197 N   0  0  0  0  0  0  0  0  0  0  0  0
   31.7723   35.8249   60.7516 C   0  0  0  0  0  0  0  0  0  0  0  0
   32.6243   36.4433   61.7704 N   0  0  0  0  0  0  0  0  0  0  0  0
   32.3636   36.2274   63.1188 C   0  0  0  0  0  0  0  0  0  0  0  0
   31.2868   35.4042   63.4966 C   0  0  0  0  0  0  0  0  0  0  0  0
   31.0235   35.1868   64.8130 C   0  0  0  0  0  0  0  0  0  0  0  0
   31.8396   35.7938   65.7844 C   0  0  0  0  0  0  0  0  0  0  0  0
   31.8544   35.7866   67.1102 N   0  0  0  0  0  0  0  0  0  0  0  0
   32.8206   36.5143   67.5467 N   0  0  0  0  0  0  0  0  0  0  0  0
   33.4834   37.0315   66.5680 N   0  0  0  0  0  0  0  0  0  0  0  0
   32.8788   36.5888   65.3846 N   0  0  0  0  0  0  0  0  0  0  0  0
   33.1292   36.7902   64.0275 N   0  0  0  0  0  0  0  0  0  0  0  0
   33.8282   40.5425   57.0492 H   0  0  0  0  0  0  0  0  0  0  0  0
   33.1552   40.7590   59.4034 H   0  0  0  0  0  0  0  0  0  0  0  0
   32.3889   38.8079   60.6592 H   0  0  0  0  0  0  0  0  0  0  0  0
   33.7428   38.3784   55.9260 H   0  0  0  0  0  0  0  0  0  0  0  0
   31.8089   34.7406   60.8566 H   0  0  0  0  0  0  0  0  0  0  0  0
   30.7456   36.1678   60.8794 H   0  0  0  0  0  0  0  0  0  0  0  0
   33.3677   37.0065   61.5043 H   0  0  0  0  0  0  0  0  0  0  0  0
   30.6682   34.9448   62.7399 H   0  0  0  0  0  0  0  0  0  0  0  0
   30.1984   34.5556   65.1086 H   0  0  0  0  0  0  0  0  0  0  0  0
  1  6  2  0  0  0  0
  1  2  1  0  0  0  0
  1 21  1  0  0  0  0
  2  3  2  0  0  0  0
  2 22  1  0  0  0  0
  3  4  1  0  0  0  0
  3 23  1  0  0  0  0
  4  9  1  0  0  0  0
  4  5  2  0  0  0  0
  5  6  1  0  0  0  0
  5  7  1  0  0  0  0
  6 24  1  0  0  0  0
  7  8  2  0  0  0  0
  8  9  1  0  0  0  0
  9 10  1  0  0  0  0
 10 11  1  0  0  0  0
 10 25  1  0  0  0  0
 10 26  1  0  0  0  0
 11 12  1  0  0  0  0
 11 27  1  0  0  0  0
 12 20  2  0  0  0  0
 12 13  1  0  0  0  0
 13 14  2  0  0  0  0
 13 28  1  0  0  0  0
 14 15  1  0  0  0  0
 14 29  1  0  0  0  0
 15 19  1  0  0  0  0
 15 16  2  0  0  0  0
 16 17  1  0  0  0  0
 17 18  2  0  0  0  0
 18 19  1  0  0  0  0
 19 20  1  0  0  0  0
M  END
$$$$
