ZINC000000041324      none
 OpenBabel11202420153D

 34 35  0  0  0  0  0  0  0  0999 V2000
   31.5068   35.5247   66.1977 C   0  0  0  0  0  0  0  0  0  0  0  0
   32.2793   36.6627   65.8095 O   0  0  0  0  0  0  0  0  0  0  0  0
   31.8063   37.4057   64.7732 C   0  0  0  0  0  0  0  0  0  0  0  0
   30.9440   38.4633   65.0139 C   0  0  0  0  0  0  0  0  0  0  0  0
   30.4640   39.2174   63.9593 C   0  0  0  0  0  0  0  0  0  0  0  0
   30.8420   38.9188   62.6634 C   0  0  0  0  0  0  0  0  0  0  0  0
   31.7023   37.8652   62.4165 C   0  0  0  0  0  0  0  0  0  0  0  0
   32.1121   37.5424   61.0027 C   0  0  0  0  0  0  0  0  0  0  0  0
   32.4597   38.7803   60.3003 N   0  0  0  0  0  0  0  0  0  0  0  0
   32.8732   38.7341   58.9654 C   0  0  0  0  0  0  0  0  0  0  0  0
   33.2026   39.9070   58.2983 C   0  0  0  0  0  0  0  0  0  0  0  0
   33.6052   39.8595   56.9782 C   0  0  0  0  0  0  0  0  0  0  0  0
   33.6913   38.6426   56.3228 C   0  0  0  0  0  0  0  0  0  0  0  0
   34.0909   38.5979   55.0330 F   0  0  0  0  0  0  0  0  0  0  0  0
   33.3631   37.4723   56.9856 C   0  0  0  0  0  0  0  0  0  0  0  0
   33.4502   36.1739   56.2808 N   0  0  0  0  0  0  0  0  0  0  0  0
   33.8107   36.1352   55.1179 O   0  0  0  0  0  0  0  0  0  0  0  0
   33.1616   35.1440   56.8634 O   0  0  0  0  0  0  0  0  0  0  0  0
   32.9548   37.5156   58.3046 C   0  0  0  0  0  0  0  0  0  0  0  0
   32.1832   37.1022   63.4686 C   0  0  0  0  0  0  0  0  0  0  0  0
   33.0255   36.0622   63.2269 O   0  0  0  0  0  0  0  0  0  0  0  0
   31.4263   34.8363   65.3565 H   0  0  0  0  0  0  0  0  0  0  0  0
   31.9946   35.0223   67.0330 H   0  0  0  0  0  0  0  0  0  0  0  0
   30.5105   35.8477   66.4995 H   0  0  0  0  0  0  0  0  0  0  0  0
   30.6473   38.6987   66.0252 H   0  0  0  0  0  0  0  0  0  0  0  0
   29.7922   40.0416   64.1482 H   0  0  0  0  0  0  0  0  0  0  0  0
   30.4647   39.5101   61.8423 H   0  0  0  0  0  0  0  0  0  0  0  0
   31.2858   37.0523   60.4878 H   0  0  0  0  0  0  0  0  0  0  0  0
   32.9761   36.8782   61.0174 H   0  0  0  0  0  0  0  0  0  0  0  0
   32.4029   39.6317   60.7613 H   0  0  0  0  0  0  0  0  0  0  0  0
   33.1394   40.8559   58.8103 H   0  0  0  0  0  0  0  0  0  0  0  0
   33.8575   40.7717   56.4579 H   0  0  0  0  0  0  0  0  0  0  0  0
   32.6995   36.6023   58.8215 H   0  0  0  0  0  0  0  0  0  0  0  0
   33.3093   35.5928   64.0232 H   0  0  0  0  0  0  0  0  0  0  0  0
  1  2  1  0  0  0  0
  1 22  1  0  0  0  0
  1 23  1  0  0  0  0
  1 24  1  0  0  0  0
  2  3  1  0  0  0  0
  3 20  2  0  0  0  0
  3  4  1  0  0  0  0
  4  5  2  0  0  0  0
  4 25  1  0  0  0  0
  5  6  1  0  0  0  0
  5 26  1  0  0  0  0
  6  7  2  0  0  0  0
  6 27  1  0  0  0  0
  7  8  1  0  0  0  0
  7 20  1  0  0  0  0
  8  9  1  0  0  0  0
  8 28  1  0  0  0  0
  8 29  1  0  0  0  0
  9 10  1  0  0  0  0
  9 30  1  0  0  0  0
 10 19  2  0  0  0  0
 10 11  1  0  0  0  0
 11 12  2  0  0  0  0
 11 31  1  0  0  0  0
 12 13  1  0  0  0  0
 12 32  1  0  0  0  0
 13 14  1  0  0  0  0
 13 15  2  0  0  0  0
 15 16  1  0  0  0  0
 15 19  1  0  0  0  0
 16 17  2  0  0  0  0
 16 18  2  0  0  0  0
 19 33  1  0  0  0  0
 20 21  1  0  0  0  0
 21 34  1  0  0  0  0
M  END
$$$$
