ZINC000000006363      none
 OpenBabel11202420153D

 46 50  0  0  1  0  0  0  0  0999 V2000
   31.2286   38.5201   62.0550 O   0  0  0  0  0  0  0  0  0  0  0  0
   31.5310   37.4818   61.5002 C   0  0  0  0  0  0  0  0  0  0  0  0
   32.0213   37.4993   60.1061 C   0  0  0  0  0  0  0  0  0  0  0  0
   32.4351   38.6938   59.5202 C   0  0  0  0  0  0  0  0  0  0  0  0
   32.9146   38.6824   58.2266 C   0  0  0  0  0  0  0  0  0  0  0  0
   32.9753   37.4972   57.5222 C   0  0  0  0  0  0  0  0  0  0  0  0
   32.5557   36.2995   58.0948 C   0  0  0  0  0  0  0  0  0  0  0  0
   32.0822   36.3016   59.3859 C   0  0  0  0  0  0  0  0  0  0  0  0
   31.6093   35.0368   60.0553 C   0  0  1  0  0  0  0  0  0  0  0  0
   30.5329   34.9361   59.9164 H   0  0  0  0  0  0  0  0  0  0  0  0
   32.3193   33.8388   59.4191 C   0  0  0  0  0  0  0  0  0  0  0  0
   32.0328   33.8394   57.9198 C   0  0  0  0  0  0  0  0  0  0  0  0
   32.6392   35.0599   57.2531 C   0  0  0  0  0  0  0  0  0  0  0  0
   31.9274   35.0758   61.5483 C   0  0  0  0  0  0  0  0  0  0  0  0
   31.4259   36.3088   62.1525 N   0  0  0  0  0  0  0  0  0  0  0  0
   30.7986   36.2668   63.4757 C   0  0  1  0  0  0  0  0  0  0  0  0
   29.7279   36.0943   63.3667 H   0  0  0  0  0  0  0  0  0  0  0  0
   31.4211   35.1386   64.3030 C   0  0  0  0  0  0  0  0  0  0  0  0
   32.0348   35.7031   65.5130 N   0  0  2  0  0  0  0  0  0  0  0  0
   31.0278   36.3568   66.3597 C   0  0  0  0  0  0  0  0  0  0  0  0
   30.3945   37.5199   65.5906 C   0  0  0  0  0  0  0  0  0  0  0  0
   31.0338   37.5991   64.1985 C   0  0  1  0  0  0  0  0  0  0  0  0
   32.5417   37.8255   64.3648 C   0  0  0  0  0  0  0  0  0  0  0  0
   33.1185   36.6334   65.1675 C   0  0  0  0  0  0  0  0  0  0  0  0
   32.3805   39.6197   60.0733 H   0  0  0  0  0  0  0  0  0  0  0  0
   33.2428   39.6019   57.7647 H   0  0  0  0  0  0  0  0  0  0  0  0
   33.3545   37.4987   56.5109 H   0  0  0  0  0  0  0  0  0  0  0  0
   33.3935   33.9196   59.5861 H   0  0  0  0  0  0  0  0  0  0  0  0
   31.9466   32.9154   59.8623 H   0  0  0  0  0  0  0  0  0  0  0  0
   32.4567   32.9397   57.4737 H   0  0  0  0  0  0  0  0  0  0  0  0
   30.9544   33.8439   57.7611 H   0  0  0  0  0  0  0  0  0  0  0  0
   33.6874   34.8549   57.0353 H   0  0  0  0  0  0  0  0  0  0  0  0
   32.1180   35.2400   56.3128 H   0  0  0  0  0  0  0  0  0  0  0  0
   33.0073   35.0218   61.6867 H   0  0  0  0  0  0  0  0  0  0  0  0
   31.4603   34.2209   62.0373 H   0  0  0  0  0  0  0  0  0  0  0  0
   30.6469   34.4258   64.5869 H   0  0  0  0  0  0  0  0  0  0  0  0
   32.1831   34.6314   63.7112 H   0  0  0  0  0  0  0  0  0  0  0  0
   31.5037   36.7354   67.2643 H   0  0  0  0  0  0  0  0  0  0  0  0
   30.2559   35.6360   66.6291 H   0  0  0  0  0  0  0  0  0  0  0  0
   29.3222   37.3512   65.4910 H   0  0  0  0  0  0  0  0  0  0  0  0
   30.5694   38.4516   66.1284 H   0  0  0  0  0  0  0  0  0  0  0  0
   30.5925   38.4173   63.6294 H   0  0  0  0  0  0  0  0  0  0  0  0
   33.0158   37.8632   63.3839 H   0  0  0  0  0  0  0  0  0  0  0  0
   32.7143   38.7637   64.8922 H   0  0  0  0  0  0  0  0  0  0  0  0
   33.5799   37.0094   66.0808 H   0  0  0  0  0  0  0  0  0  0  0  0
   33.8670   36.1137   64.5693 H   0  0  0  0  0  0  0  0  0  0  0  0
  1  2  2  0  0  0  0
  2 15  1  0  0  0  0
  2  3  1  0  0  0  0
  3  8  2  0  0  0  0
  3  4  1  0  0  0  0
  4  5  2  0  0  0  0
  4 25  1  0  0  0  0
  5  6  1  0  0  0  0
  5 26  1  0  0  0  0
  6  7  2  0  0  0  0
  6 27  1  0  0  0  0
  7 13  1  0  0  0  0
  7  8  1  0  0  0  0
  8  9  1  0  0  0  0
  9 10  1  6  0  0  0
  9 11  1  0  0  0  0
  9 14  1  0  0  0  0
 11 12  1  0  0  0  0
 11 28  1  0  0  0  0
 11 29  1  0  0  0  0
 12 13  1  0  0  0  0
 12 30  1  0  0  0  0
 12 31  1  0  0  0  0
 13 32  1  0  0  0  0
 13 33  1  0  0  0  0
 14 15  1  0  0  0  0
 14 34  1  0  0  0  0
 14 35  1  0  0  0  0
 15 16  1  0  0  0  0
 16 17  1  6  0  0  0
 16 22  1  0  0  0  0
 16 18  1  0  0  0  0
 18 36  1  0  0  0  0
 18 37  1  0  0  0  0
 19 18  1  6  0  0  0
 19 24  1  0  0  0  0
 19 20  1  0  0  0  0
 20 21  1  0  0  0  0
 20 38  1  0  0  0  0
 20 39  1  0  0  0  0
 21 22  1  0  0  0  0
 21 40  1  0  0  0  0
 21 41  1  0  0  0  0
 22 23  1  0  0  0  0
 22 42  1  6  0  0  0
 23 24  1  0  0  0  0
 23 43  1  0  0  0  0
 23 44  1  0  0  0  0
 24 45  1  0  0  0  0
 24 46  1  0  0  0  0
M  END
$$$$
