ZINC000000000265      none
 OpenBabel11202420153D

 37 39  0  0  1  0  0  0  0  0999 V2000
   27.0840   37.2615   68.0275 C   0  0  0  0  0  0  0  0  0  0  0  0
   28.2144   36.2340   67.9401 C   0  0  0  0  0  0  0  0  0  0  0  0
   28.9443   36.4309   66.7274 O   0  0  0  0  0  0  0  0  0  0  0  0
   30.0284   35.5176   66.5468 C   0  0  2  0  0  0  0  0  0  0  0  0
   29.7225   34.5248   66.8769 H   0  0  0  0  0  0  0  0  0  0  0  0
   31.2020   35.9706   67.3672 C   0  0  0  0  0  0  0  0  0  0  0  0
   31.7393   35.1169   68.3126 C   0  0  0  0  0  0  0  0  0  0  0  0
   32.8256   35.5107   69.0713 C   0  0  0  0  0  0  0  0  0  0  0  0
   33.3837   36.7638   68.8888 C   0  0  0  0  0  0  0  0  0  0  0  0
   32.8562   37.6266   67.9520 C   0  0  0  0  0  0  0  0  0  0  0  0
   31.7532   37.2361   67.1835 C   0  0  0  0  0  0  0  0  0  0  0  0
   31.1950   38.1719   66.1977 C   0  0  0  0  0  0  0  0  0  0  0  0
   31.1314   39.3416   66.5224 O   0  0  0  0  0  0  0  0  0  0  0  0
   30.7567   37.8608   64.9930 N   0  0  0  0  0  0  0  0  0  0  0  0
   30.2174   38.9641   64.1942 C   0  0  0  0  0  0  0  0  0  0  0  0
   30.7486   36.6081   64.3956 C   0  0  0  0  0  0  0  0  0  0  0  0
   31.0991   36.5116   63.0485 C   0  0  0  0  0  0  0  0  0  0  0  0
   31.0865   35.2888   62.4120 C   0  0  0  0  0  0  0  0  0  0  0  0
   30.7261   34.1505   63.1100 C   0  0  0  0  0  0  0  0  0  0  0  0
   30.3840   34.2401   64.4448 C   0  0  0  0  0  0  0  0  0  0  0  0
   30.3977   35.4658   65.0914 C   0  0  0  0  0  0  0  0  0  0  0  0
   27.5052   38.2668   68.0160 H   0  0  0  0  0  0  0  0  0  0  0  0
   26.4145   37.1383   67.1763 H   0  0  0  0  0  0  0  0  0  0  0  0
   26.5273   37.1113   68.9525 H   0  0  0  0  0  0  0  0  0  0  0  0
   28.8841   36.3572   68.7913 H   0  0  0  0  0  0  0  0  0  0  0  0
   27.7934   35.2287   67.9516 H   0  0  0  0  0  0  0  0  0  0  0  0
   31.3084   34.1374   68.4587 H   0  0  0  0  0  0  0  0  0  0  0  0
   33.2399   34.8386   69.8082 H   0  0  0  0  0  0  0  0  0  0  0  0
   34.2353   37.0662   69.4804 H   0  0  0  0  0  0  0  0  0  0  0  0
   33.2930   38.6041   67.8111 H   0  0  0  0  0  0  0  0  0  0  0  0
   29.1479   39.0597   64.3820 H   0  0  0  0  0  0  0  0  0  0  0  0
   30.7191   39.8916   64.4699 H   0  0  0  0  0  0  0  0  0  0  0  0
   30.3837   38.7617   63.1361 H   0  0  0  0  0  0  0  0  0  0  0  0
   31.3815   37.3991   62.5016 H   0  0  0  0  0  0  0  0  0  0  0  0
   31.3576   35.2199   61.3689 H   0  0  0  0  0  0  0  0  0  0  0  0
   30.7125   33.1925   62.6116 H   0  0  0  0  0  0  0  0  0  0  0  0
   30.1037   33.3498   64.9880 H   0  0  0  0  0  0  0  0  0  0  0  0
  1  2  1  0  0  0  0
  1 22  1  0  0  0  0
  1 23  1  0  0  0  0
  1 24  1  0  0  0  0
  2  3  1  0  0  0  0
  2 25  1  0  0  0  0
  2 26  1  0  0  0  0
  3  4  1  0  0  0  0
  4  5  1  1  0  0  0
  4 21  1  0  0  0  0
  4  6  1  0  0  0  0
  6 11  2  0  0  0  0
  6  7  1  0  0  0  0
  7  8  2  0  0  0  0
  7 27  1  0  0  0  0
  8  9  1  0  0  0  0
  8 28  1  0  0  0  0
  9 10  2  0  0  0  0
  9 29  1  0  0  0  0
 10 11  1  0  0  0  0
 10 30  1  0  0  0  0
 11 12  1  0  0  0  0
 12 13  2  0  0  0  0
 12 14  1  0  0  0  0
 14 15  1  0  0  0  0
 14 16  1  0  0  0  0
 15 31  1  0  0  0  0
 15 32  1  0  0  0  0
 15 33  1  0  0  0  0
 16 21  2  0  0  0  0
 16 17  1  0  0  0  0
 17 18  2  0  0  0  0
 17 34  1  0  0  0  0
 18 19  1  0  0  0  0
 18 35  1  0  0  0  0
 19 20  2  0  0  0  0
 19 36  1  0  0  0  0
 20 21  1  0  0  0  0
 20 37  1  0  0  0  0
M  END
$$$$
