ZINC000000001342      none
 OpenBabel11202420153D

 40 42  0  0  0  0  0  0  0  0999 V2000
   32.5565   36.6633   67.0577 C   0  0  0  0  0  0  0  0  0  0  0  0
   31.9467   37.6670   66.0770 C   0  0  0  0  0  0  0  0  0  0  0  0
   32.4443   37.4001   64.7393 O   0  0  0  0  0  0  0  0  0  0  0  0
   31.7371   36.5437   63.9856 C   0  0  0  0  0  0  0  0  0  0  0  0
   30.7353   36.0339   64.4290 O   0  0  0  0  0  0  0  0  0  0  0  0
   32.1925   36.2178   62.5866 C   0  0  0  0  0  0  0  0  0  0  0  0
   31.2817   35.2904   61.9930 O   0  0  0  0  0  0  0  0  0  0  0  0
   31.5492   34.8906   60.7236 C   0  0  0  0  0  0  0  0  0  0  0  0
   31.1588   33.6214   60.3023 C   0  0  0  0  0  0  0  0  0  0  0  0
   31.4216   33.2054   59.0280 C   0  0  0  0  0  0  0  0  0  0  0  0
   32.0845   34.0577   58.1445 C   0  0  0  0  0  0  0  0  0  0  0  0
   32.3861   33.6435   56.7614 C   0  0  0  0  0  0  0  0  0  0  0  0
   32.0652   32.5427   56.3448 O   0  0  0  0  0  0  0  0  0  0  0  0
   33.0583   34.5757   55.9352 C   0  0  0  0  0  0  0  0  0  0  0  0
   33.4034   35.7907   56.4382 C   0  0  0  0  0  0  0  0  0  0  0  0
   34.1089   36.7474   55.5619 C   0  0  0  0  0  0  0  0  0  0  0  0
   33.9424   38.1217   55.7460 C   0  0  0  0  0  0  0  0  0  0  0  0
   34.6040   39.0096   54.9235 C   0  0  0  0  0  0  0  0  0  0  0  0
   35.4317   38.5412   53.9181 C   0  0  0  0  0  0  0  0  0  0  0  0
   35.6012   37.1810   53.7301 C   0  0  0  0  0  0  0  0  0  0  0  0
   34.9453   36.2818   54.5450 C   0  0  0  0  0  0  0  0  0  0  0  0
   33.1230   36.1563   57.6986 O   0  0  0  0  0  0  0  0  0  0  0  0
   32.4817   35.3399   58.5605 C   0  0  0  0  0  0  0  0  0  0  0  0
   32.2072   35.7483   59.8578 C   0  0  0  0  0  0  0  0  0  0  0  0
   32.1829   36.8637   68.0619 H   0  0  0  0  0  0  0  0  0  0  0  0
   32.2788   35.6516   66.7619 H   0  0  0  0  0  0  0  0  0  0  0  0
   33.6422   36.7597   67.0481 H   0  0  0  0  0  0  0  0  0  0  0  0
   32.2244   38.6786   66.3729 H   0  0  0  0  0  0  0  0  0  0  0  0
   30.8610   37.5706   66.0867 H   0  0  0  0  0  0  0  0  0  0  0  0
   33.1886   35.7767   62.6221 H   0  0  0  0  0  0  0  0  0  0  0  0
   32.2206   37.1308   61.9917 H   0  0  0  0  0  0  0  0  0  0  0  0
   30.6456   32.9624   60.9871 H   0  0  0  0  0  0  0  0  0  0  0  0
   31.1178   32.2205   58.7057 H   0  0  0  0  0  0  0  0  0  0  0  0
   33.2984   34.3222   54.9132 H   0  0  0  0  0  0  0  0  0  0  0  0
   33.2973   38.4884   56.5306 H   0  0  0  0  0  0  0  0  0  0  0  0
   34.4761   40.0726   55.0647 H   0  0  0  0  0  0  0  0  0  0  0  0
   35.9440   39.2410   53.2744 H   0  0  0  0  0  0  0  0  0  0  0  0
   36.2483   36.8224   52.9433 H   0  0  0  0  0  0  0  0  0  0  0  0
   35.0788   35.2203   54.3973 H   0  0  0  0  0  0  0  0  0  0  0  0
   32.5062   36.7310   60.1914 H   0  0  0  0  0  0  0  0  0  0  0  0
  1  2  1  0  0  0  0
  1 25  1  0  0  0  0
  1 26  1  0  0  0  0
  1 27  1  0  0  0  0
  2  3  1  0  0  0  0
  2 28  1  0  0  0  0
  2 29  1  0  0  0  0
  3  4  1  0  0  0  0
  4  5  2  0  0  0  0
  4  6  1  0  0  0  0
  6  7  1  0  0  0  0
  6 30  1  0  0  0  0
  6 31  1  0  0  0  0
  7  8  1  0  0  0  0
  8 24  2  0  0  0  0
  8  9  1  0  0  0  0
  9 10  2  0  0  0  0
  9 32  1  0  0  0  0
 10 11  1  0  0  0  0
 10 33  1  0  0  0  0
 11 23  2  0  0  0  0
 11 12  1  0  0  0  0
 12 13  2  0  0  0  0
 12 14  1  0  0  0  0
 14 15  2  0  0  0  0
 14 34  1  0  0  0  0
 15 16  1  0  0  0  0
 15 22  1  0  0  0  0
 16 21  2  0  0  0  0
 16 17  1  0  0  0  0
 17 18  2  0  0  0  0
 17 35  1  0  0  0  0
 18 19  1  0  0  0  0
 18 36  1  0  0  0  0
 19 20  2  0  0  0  0
 19 37  1  0  0  0  0
 20 21  1  0  0  0  0
 20 38  1  0  0  0  0
 21 39  1  0  0  0  0
 22 23  1  0  0  0  0
 23 24  1  0  0  0  0
 24 40  1  0  0  0  0
M  END
$$$$
