ZINC000000039615      none
 OpenBabel11202420153D

 24 24  0  0  1  0  0  0  0  0999 V2000
   34.7766   33.1645   55.7338 C   0  0  0  0  0  0  0  0  0  0  0  0
   33.9708   34.1488   56.5418 C   0  0  0  0  0  0  0  0  0  0  0  0
   33.2720   33.7576   57.4525 O   0  0  0  0  0  0  0  0  0  0  0  0
   34.0268   35.4640   56.2522 N   0  0  0  0  0  0  0  0  0  0  0  0
   33.2846   36.3708   56.9967 C   0  0  0  0  0  0  0  0  0  0  0  0
   32.5123   36.0863   57.9872 N   0  0  0  0  0  0  0  0  0  0  0  0
   31.8227   37.0747   58.6544 N   0  0  0  0  0  0  0  0  0  0  0  0
   31.0044   36.8288   59.6948 C   0  0  0  0  0  0  0  0  0  0  0  0
   30.8082   35.4160   60.1817 C   0  0  0  0  0  0  0  0  0  0  0  0
   30.4246   37.7449   60.2408 O   0  0  0  0  0  0  0  0  0  0  0  0
   32.0655   38.4244   58.1224 C   0  0  1  0  0  0  0  0  0  0  0  0
   31.1399   38.8641   57.7505 H   0  0  0  0  0  0  0  0  0  0  0  0
   32.6969   39.3206   59.1896 C   0  0  0  0  0  0  0  0  0  0  0  0
   33.2376   38.1258   56.7573 S   0  0  0  0  0  0  0  0  0  0  0  0
   35.7581   33.0370   56.1904 H   0  0  0  0  0  0  0  0  0  0  0  0
   34.8947   33.5394   54.7171 H   0  0  0  0  0  0  0  0  0  0  0  0
   34.2598   32.2050   55.7096 H   0  0  0  0  0  0  0  0  0  0  0  0
   34.5858   35.7769   55.5238 H   0  0  0  0  0  0  0  0  0  0  0  0
   31.7667   35.0043   60.4974 H   0  0  0  0  0  0  0  0  0  0  0  0
   30.1169   35.4149   61.0244 H   0  0  0  0  0  0  0  0  0  0  0  0
   30.3991   34.8074   59.3753 H   0  0  0  0  0  0  0  0  0  0  0  0
   33.6467   38.8916   59.5088 H   0  0  0  0  0  0  0  0  0  0  0  0
   32.8679   40.3141   58.7750 H   0  0  0  0  0  0  0  0  0  0  0  0
   32.0257   39.3947   60.0454 H   0  0  0  0  0  0  0  0  0  0  0  0
  1  2  1  0  0  0  0
  1 15  1  0  0  0  0
  1 16  1  0  0  0  0
  1 17  1  0  0  0  0
  2  3  2  0  0  0  0
  2  4  1  0  0  0  0
  4  5  1  0  0  0  0
  4 18  1  0  0  0  0
  5 14  1  0  0  0  0
  5  6  2  0  0  0  0
  6  7  1  0  0  0  0
  7  8  1  0  0  0  0
  7 11  1  0  0  0  0
  8  9  1  0  0  0  0
  8 10  2  0  0  0  0
  9 19  1  0  0  0  0
  9 20  1  0  0  0  0
  9 21  1  0  0  0  0
 11 12  1  6  0  0  0
 11 13  1  0  0  0  0
 11 14  1  0  0  0  0
 13 22  1  0  0  0  0
 13 23  1  0  0  0  0
 13 24  1  0  0  0  0
M  END
$$$$
