ZINC000000033992      none
 OpenBabel11202420153D

 32 34  0  0  0  0  0  0  0  0999 V2000
   29.7576   34.5077   65.4683 O   0  0  0  0  0  0  0  0  0  0  0  0
   30.8956   35.2857   65.1232 S   0  0  0  0  0  0  0  0  0  0  0  0
   31.9872   35.5344   65.9982 O   0  0  0  0  0  0  0  0  0  0  0  0
   31.5193   34.6655   63.7010 N   0  0  0  0  0  0  0  0  0  0  0  0
   31.3186   35.5685   62.7944 C   0  0  0  0  0  0  0  0  0  0  0  0
   31.7244   35.3565   61.4949 N   0  0  0  0  0  0  0  0  0  0  0  0
   32.0984   36.4419   60.6918 N   0  0  0  0  0  0  0  0  0  0  0  0
   32.4809   36.2421   59.4674 C   0  0  0  0  0  0  0  0  0  0  0  0
   32.8741   37.3839   58.6226 C   0  0  0  0  0  0  0  0  0  0  0  0
   33.2918   37.1727   57.3067 C   0  0  0  0  0  0  0  0  0  0  0  0
   33.6546   38.2468   56.5197 C   0  0  0  0  0  0  0  0  0  0  0  0
   34.1674   37.9846   54.8819 Cl  0  0  0  0  0  0  0  0  0  0  0  0
   33.6154   39.5329   57.0330 C   0  0  0  0  0  0  0  0  0  0  0  0
   33.2088   39.7533   58.3356 C   0  0  0  0  0  0  0  0  0  0  0  0
   32.8367   38.6869   59.1372 C   0  0  0  0  0  0  0  0  0  0  0  0
   32.4367   38.9031   60.4173 O   0  0  0  0  0  0  0  0  0  0  0  0
   30.6508   36.8231   63.1722 C   0  0  0  0  0  0  0  0  0  0  0  0
   30.3168   37.9461   62.3996 C   0  0  0  0  0  0  0  0  0  0  0  0
   29.6833   39.0232   62.9772 C   0  0  0  0  0  0  0  0  0  0  0  0
   29.3643   39.0229   64.3236 C   0  0  0  0  0  0  0  0  0  0  0  0
   29.6869   37.9210   65.1025 C   0  0  0  0  0  0  0  0  0  0  0  0
   30.3148   36.8512   64.5322 C   0  0  0  0  0  0  0  0  0  0  0  0
   31.7514   34.4556   61.1361 H   0  0  0  0  0  0  0  0  0  0  0  0
   32.5108   35.2391   59.0679 H   0  0  0  0  0  0  0  0  0  0  0  0
   33.3272   36.1709   56.9045 H   0  0  0  0  0  0  0  0  0  0  0  0
   33.9044   40.3681   56.4121 H   0  0  0  0  0  0  0  0  0  0  0  0
   33.1814   40.7587   58.7290 H   0  0  0  0  0  0  0  0  0  0  0  0
   32.4445   39.8336   60.6799 H   0  0  0  0  0  0  0  0  0  0  0  0
   30.5583   37.9655   61.3471 H   0  0  0  0  0  0  0  0  0  0  0  0
   29.4322   39.8810   62.3709 H   0  0  0  0  0  0  0  0  0  0  0  0
   28.8672   39.8742   64.7649 H   0  0  0  0  0  0  0  0  0  0  0  0
   29.4466   37.9115   66.1554 H   0  0  0  0  0  0  0  0  0  0  0  0
  1  2  2  0  0  0  0
  2 22  1  0  0  0  0
  2  3  2  0  0  0  0
  2  4  1  0  0  0  0
  4  5  2  0  0  0  0
  5  6  1  0  0  0  0
  5 17  1  0  0  0  0
  6  7  1  0  0  0  0
  6 23  1  0  0  0  0
  7  8  2  0  0  0  0
  8  9  1  0  0  0  0
  8 24  1  0  0  0  0
  9 15  2  0  0  0  0
  9 10  1  0  0  0  0
 10 11  2  0  0  0  0
 10 25  1  0  0  0  0
 11 12  1  0  0  0  0
 11 13  1  0  0  0  0
 13 14  2  0  0  0  0
 13 26  1  0  0  0  0
 14 15  1  0  0  0  0
 14 27  1  0  0  0  0
 15 16  1  0  0  0  0
 16 28  1  0  0  0  0
 17 22  2  0  0  0  0
 17 18  1  0  0  0  0
 18 19  2  0  0  0  0
 18 29  1  0  0  0  0
 19 20  1  0  0  0  0
 19 30  1  0  0  0  0
 20 21  2  0  0  0  0
 20 31  1  0  0  0  0
 21 22  1  0  0  0  0
 21 32  1  0  0  0  0
M  END
$$$$
