ZINC000000052447      none
 OpenBabel11202420153D

 27 27  0  0  0  0  0  0  0  0999 V2000
   33.3885   37.7421   56.8948 C   0  0  0  0  0  0  0  0  0  0  0  0
   32.7769   37.8968   58.2634 C   0  0  0  0  0  0  0  0  0  0  0  0
   32.1411   36.8600   58.8498 C   0  0  0  0  0  0  0  0  0  0  0  0
   31.5911   37.0179   60.0928 N   0  0  0  0  0  0  0  0  0  0  0  0
   30.9006   35.8932   60.7289 C   0  0  0  0  0  0  0  0  0  0  0  0
   31.9015   35.0806   61.5529 C   0  0  0  0  0  0  0  0  0  0  0  0
   32.5200   35.9743   62.6298 C   0  0  0  0  0  0  0  0  0  0  0  0
   31.1804   33.9060   62.2172 C   0  0  0  0  0  0  0  0  0  0  0  0
   31.6736   38.1978   60.7339 C   0  0  0  0  0  0  0  0  0  0  0  0
   31.1737   38.3175   61.8357 O   0  0  0  0  0  0  0  0  0  0  0  0
   32.3061   39.2462   60.1749 N   0  0  0  0  0  0  0  0  0  0  0  0
   32.3597   40.0888   60.6525 H   0  0  0  0  0  0  0  0  0  0  0  0
   32.8612   39.1314   58.9514 C   0  0  0  0  0  0  0  0  0  0  0  0
   33.4293   40.0808   58.4428 O   0  0  0  0  0  0  0  0  0  0  0  0
   32.6515   38.0047   56.1359 H   0  0  0  0  0  0  0  0  0  0  0  0
   34.2521   38.4013   56.8061 H   0  0  0  0  0  0  0  0  0  0  0  0
   33.7042   36.7086   56.7526 H   0  0  0  0  0  0  0  0  0  0  0  0
   32.0672   35.9107   58.3404 H   0  0  0  0  0  0  0  0  0  0  0  0
   30.4598   35.2565   59.9617 H   0  0  0  0  0  0  0  0  0  0  0  0
   30.1147   36.2720   61.3823 H   0  0  0  0  0  0  0  0  0  0  0  0
   32.6873   34.7019   60.8995 H   0  0  0  0  0  0  0  0  0  0  0  0
   31.7340   36.3530   63.2832 H   0  0  0  0  0  0  0  0  0  0  0  0
   33.2330   35.3954   63.2169 H   0  0  0  0  0  0  0  0  0  0  0  0
   33.0336   36.8110   62.1566 H   0  0  0  0  0  0  0  0  0  0  0  0
   30.7397   33.2693   61.4500 H   0  0  0  0  0  0  0  0  0  0  0  0
   31.8934   33.3271   62.8043 H   0  0  0  0  0  0  0  0  0  0  0  0
   30.3944   34.2847   62.8706 H   0  0  0  0  0  0  0  0  0  0  0  0
  1  2  1  0  0  0  0
  1 15  1  0  0  0  0
  1 16  1  0  0  0  0
  1 17  1  0  0  0  0
  2 13  1  0  0  0  0
  2  3  2  0  0  0  0
  3  4  1  0  0  0  0
  3 18  1  0  0  0  0
  4  5  1  0  0  0  0
  4  9  1  0  0  0  0
  5  6  1  0  0  0  0
  5 19  1  0  0  0  0
  5 20  1  0  0  0  0
  6  7  1  0  0  0  0
  6  8  1  0  0  0  0
  6 21  1  0  0  0  0
  7 22  1  0  0  0  0
  7 23  1  0  0  0  0
  7 24  1  0  0  0  0
  8 25  1  0  0  0  0
  8 26  1  0  0  0  0
  8 27  1  0  0  0  0
  9 10  2  0  0  0  0
  9 11  1  0  0  0  0
 11 12  1  0  0  0  0
 11 13  1  0  0  0  0
 13 14  2  0  0  0  0
M  END
$$$$
