ZINC000000013142      none
 OpenBabel11202420153D

 38 40  0  0  0  0  0  0  0  0999 V2000
   33.5644   40.2613   58.8523 C   0  0  0  0  0  0  0  0  0  0  0  0
   33.0349   38.8510   58.8118 C   0  0  0  0  0  0  0  0  0  0  0  0
   32.9492   38.2320   57.6516 N   0  0  0  0  0  0  0  0  0  0  0  0
   32.4890   36.9915   57.5718 C   0  0  0  0  0  0  0  0  0  0  0  0
   32.0902   36.3454   58.7256 C   0  0  0  0  0  0  0  0  0  0  0  0
   32.1985   37.0280   59.9387 C   0  0  0  0  0  0  0  0  0  0  0  0
   31.8160   36.4216   61.1241 N   0  0  0  0  0  0  0  0  0  0  0  0
   30.3764   36.5925   61.3623 C   0  0  0  0  0  0  0  0  0  0  0  0
   29.9611   35.7598   62.5798 C   0  0  0  0  0  0  0  0  0  0  0  0
   30.8263   36.1239   63.7121 N   0  0  0  0  0  0  0  0  0  0  0  0
   30.2986   36.4625   64.9051 C   0  0  0  0  0  0  0  0  0  0  0  0
   29.0926   36.4698   65.0561 O   0  0  0  0  0  0  0  0  0  0  0  0
   31.1867   36.8251   66.0299 C   0  0  0  0  0  0  0  0  0  0  0  0
   31.6459   35.8454   66.9189 C   0  0  0  0  0  0  0  0  0  0  0  0
   32.4795   36.2360   67.9518 C   0  0  0  0  0  0  0  0  0  0  0  0
   32.8203   37.5709   68.0788 C   0  0  0  0  0  0  0  0  0  0  0  0
   32.3681   38.4731   67.2292 N   0  0  0  0  0  0  0  0  0  0  0  0
   31.5769   38.1500   66.2272 C   0  0  0  0  0  0  0  0  0  0  0  0
   32.2828   36.1091   63.5078 C   0  0  0  0  0  0  0  0  0  0  0  0
   32.6069   36.9281   62.2537 C   0  0  0  0  0  0  0  0  0  0  0  0
   32.6702   38.2714   59.9375 N   0  0  0  0  0  0  0  0  0  0  0  0
   32.7381   40.9631   58.7396 H   0  0  0  0  0  0  0  0  0  0  0  0
   34.0615   40.4356   59.8066 H   0  0  0  0  0  0  0  0  0  0  0  0
   34.2768   40.4055   58.0399 H   0  0  0  0  0  0  0  0  0  0  0  0
   32.4226   36.4936   56.6157 H   0  0  0  0  0  0  0  0  0  0  0  0
   31.7074   35.3360   58.6906 H   0  0  0  0  0  0  0  0  0  0  0  0
   30.1614   37.6444   61.5505 H   0  0  0  0  0  0  0  0  0  0  0  0
   29.8207   36.2582   60.4863 H   0  0  0  0  0  0  0  0  0  0  0  0
   30.0783   34.6996   62.3555 H   0  0  0  0  0  0  0  0  0  0  0  0
   28.9216   35.9712   62.8305 H   0  0  0  0  0  0  0  0  0  0  0  0
   31.3600   34.8109   66.7990 H   0  0  0  0  0  0  0  0  0  0  0  0
   32.8563   35.5074   68.6542 H   0  0  0  0  0  0  0  0  0  0  0  0
   33.4675   37.8793   68.8866 H   0  0  0  0  0  0  0  0  0  0  0  0
   31.2268   38.9172   65.5526 H   0  0  0  0  0  0  0  0  0  0  0  0
   32.6232   35.0824   63.3726 H   0  0  0  0  0  0  0  0  0  0  0  0
   32.7783   36.5513   64.3720 H   0  0  0  0  0  0  0  0  0  0  0  0
   33.6685   36.8372   62.0242 H   0  0  0  0  0  0  0  0  0  0  0  0
   32.3610   37.9753   62.4293 H   0  0  0  0  0  0  0  0  0  0  0  0
  1  2  1  0  0  0  0
  1 22  1  0  0  0  0
  1 23  1  0  0  0  0
  1 24  1  0  0  0  0
  2 21  2  0  0  0  0
  2  3  1  0  0  0  0
  3  4  2  0  0  0  0
  4  5  1  0  0  0  0
  4 25  1  0  0  0  0
  5  6  2  0  0  0  0
  5 26  1  0  0  0  0
  6  7  1  0  0  0  0
  6 21  1  0  0  0  0
  7 20  1  0  0  0  0
  7  8  1  0  0  0  0
  8  9  1  0  0  0  0
  8 27  1  0  0  0  0
  8 28  1  0  0  0  0
  9 10  1  0  0  0  0
  9 29  1  0  0  0  0
  9 30  1  0  0  0  0
 10 11  1  0  0  0  0
 10 19  1  0  0  0  0
 11 12  2  0  0  0  0
 11 13  1  0  0  0  0
 13 18  2  0  0  0  0
 13 14  1  0  0  0  0
 14 15  2  0  0  0  0
 14 31  1  0  0  0  0
 15 16  1  0  0  0  0
 15 32  1  0  0  0  0
 16 17  2  0  0  0  0
 16 33  1  0  0  0  0
 17 18  1  0  0  0  0
 18 34  1  0  0  0  0
 19 20  1  0  0  0  0
 19 35  1  0  0  0  0
 19 36  1  0  0  0  0
 20 37  1  0  0  0  0
 20 38  1  0  0  0  0
M  END
$$$$
