ZINC000000053232      none
 OpenBabel11202420153D

 29 31  0  0  0  0  0  0  0  0999 V2000
   33.3885   36.9868   65.5391 C   0  0  0  0  0  0  0  0  0  0  0  0
   32.1082   37.7755   65.4393 C   0  0  0  0  0  0  0  0  0  0  0  0
   31.4529   37.8983   64.2240 C   0  0  0  0  0  0  0  0  0  0  0  0
   30.2779   38.6321   64.1760 C   0  0  0  0  0  0  0  0  0  0  0  0
   29.5317   38.7931   62.8768 C   0  0  0  0  0  0  0  0  0  0  0  0
   29.8199   39.1897   65.2845 N   0  0  0  0  0  0  0  0  0  0  0  0
   30.4707   39.0530   66.4303 C   0  0  0  0  0  0  0  0  0  0  0  0
   29.9618   39.6511   67.5732 N   0  0  0  0  0  2  0  0  0  0  0  0
   28.5973   39.8266   67.7125 C   0  0  0  0  0  0  0  0  0  0  0  0
   27.8838   39.3240   68.6606 N   0  0  0  0  0  0  0  0  0  0  0  0
   26.5618   39.5859   68.6615 C   0  0  0  0  0  0  0  0  0  0  0  0
   25.5776   39.1589   69.5783 C   0  0  0  0  0  0  0  0  0  0  0  0
   24.2672   39.5306   69.4143 C   0  0  0  0  0  0  0  0  0  0  0  0
   23.8885   40.3312   68.3467 C   0  0  0  0  0  0  0  0  0  0  0  0
   24.8318   40.7603   67.4397 C   0  0  0  0  0  0  0  0  0  0  0  0
   26.1666   40.3925   67.5902 C   0  0  0  0  0  0  0  0  0  0  0  0
   27.5898   40.7679   66.6218 S   0  0  0  0  0  0  0  0  0  0  0  0
   31.5987   38.3630   66.5092 N   0  0  0  0  0  0  0  0  0  0  0  0
   34.2368   37.6468   65.3581 H   0  0  0  0  0  0  0  0  0  0  0  0
   33.4714   36.5534   66.5358 H   0  0  0  0  0  0  0  0  0  0  0  0
   33.3832   36.1897   64.7956 H   0  0  0  0  0  0  0  0  0  0  0  0
   31.8491   37.4322   63.3339 H   0  0  0  0  0  0  0  0  0  0  0  0
   29.8915   39.6821   62.3588 H   0  0  0  0  0  0  0  0  0  0  0  0
   29.6978   37.9159   62.2513 H   0  0  0  0  0  0  0  0  0  0  0  0
   28.4660   38.8975   63.0804 H   0  0  0  0  0  0  0  0  0  0  0  0
   25.8577   38.5352   70.4144 H   0  0  0  0  0  0  0  0  0  0  0  0
   23.5230   39.1930   70.1204 H   0  0  0  0  0  0  0  0  0  0  0  0
   22.8542   40.6179   68.2267 H   0  0  0  0  0  0  0  0  0  0  0  0
   24.5354   41.3834   66.6088 H   0  0  0  0  0  0  0  0  0  0  0  0
  1  2  1  0  0  0  0
  1 19  1  0  0  0  0
  1 20  1  0  0  0  0
  1 21  1  0  0  0  0
  2 18  2  0  0  0  0
  2  3  1  0  0  0  0
  3  4  2  0  0  0  0
  3 22  1  0  0  0  0
  4  5  1  0  0  0  0
  4  6  1  0  0  0  0
  5 23  1  0  0  0  0
  5 24  1  0  0  0  0
  5 25  1  0  0  0  0
  6  7  2  0  0  0  0
  7  8  1  0  0  0  0
  7 18  1  0  0  0  0
  8  9  1  0  0  0  0
  9 17  1  0  0  0  0
  9 10  2  0  0  0  0
 10 11  1  0  0  0  0
 11 16  2  0  0  0  0
 11 12  1  0  0  0  0
 12 13  2  0  0  0  0
 12 26  1  0  0  0  0
 13 14  1  0  0  0  0
 13 27  1  0  0  0  0
 14 15  2  0  0  0  0
 14 28  1  0  0  0  0
 15 16  1  0  0  0  0
 15 29  1  0  0  0  0
 16 17  1  0  0  0  0
M  END
$$$$
