ZINC000000040254      none
 OpenBabel11202420153D

 25 26  0  0  0  0  0  0  0  0999 V2000
   30.9119   38.3688   62.0318 C   0  0  0  0  0  0  0  0  0  0  0  0
   31.5269   37.7979   60.7801 C   0  0  0  0  0  0  0  0  0  0  0  0
   31.3050   36.4751   60.4437 C   0  0  0  0  0  0  0  0  0  0  0  0
   31.8622   35.9506   59.2940 C   0  0  0  0  0  0  0  0  0  0  0  0
   32.6507   36.7516   58.4784 C   0  0  0  0  0  0  0  0  0  0  0  0
   33.2167   36.2229   57.3116 N   0  0  0  0  0  0  0  0  0  0  0  0
   33.5116   36.9324   56.1391 C   0  0  0  0  0  0  0  0  0  0  0  0
   33.2941   38.3070   55.9138 C   0  0  0  0  0  0  0  0  0  0  0  0
   34.2305   39.0353   55.6518 O   0  0  0  0  0  0  0  0  0  0  0  0
   34.0469   36.0427   55.2593 C   0  0  0  0  0  0  0  0  0  0  0  0
   34.5897   36.3971   53.6488 Cl  0  0  0  0  0  0  0  0  0  0  0  0
   34.0814   34.8203   55.8703 N   0  0  0  0  0  0  0  0  0  0  0  0
   34.4153   34.0006   55.4737 H   0  0  0  0  0  0  0  0  0  0  0  0
   33.5822   34.9411   57.1142 C   0  0  0  0  0  0  0  0  0  0  0  0
   33.4754   34.0405   57.9257 O   0  0  0  0  0  0  0  0  0  0  0  0
   32.8763   38.0780   58.8220 C   0  0  0  0  0  0  0  0  0  0  0  0
   32.3163   38.5966   59.9731 C   0  0  0  0  0  0  0  0  0  0  0  0
   31.5966   38.2306   62.8687 H   0  0  0  0  0  0  0  0  0  0  0  0
   30.7211   39.4326   61.8904 H   0  0  0  0  0  0  0  0  0  0  0  0
   29.9733   37.8561   62.2420 H   0  0  0  0  0  0  0  0  0  0  0  0
   30.6917   35.8527   61.0784 H   0  0  0  0  0  0  0  0  0  0  0  0
   31.6852   34.9186   59.0296 H   0  0  0  0  0  0  0  0  0  0  0  0
   32.2950   38.7127   55.9740 H   0  0  0  0  0  0  0  0  0  0  0  0
   33.4893   38.7034   58.1900 H   0  0  0  0  0  0  0  0  0  0  0  0
   32.4911   39.6282   60.2406 H   0  0  0  0  0  0  0  0  0  0  0  0
  1  2  1  0  0  0  0
  1 18  1  0  0  0  0
  1 19  1  0  0  0  0
  1 20  1  0  0  0  0
  2 17  2  0  0  0  0
  2  3  1  0  0  0  0
  3  4  2  0  0  0  0
  3 21  1  0  0  0  0
  4  5  1  0  0  0  0
  4 22  1  0  0  0  0
  5  6  1  0  0  0  0
  5 16  2  0  0  0  0
  6 14  1  0  0  0  0
  6  7  1  0  0  0  0
  7  8  1  0  0  0  0
  7 10  2  0  0  0  0
  8  9  2  0  0  0  0
  8 23  1  0  0  0  0
 10 11  1  0  0  0  0
 10 12  1  0  0  0  0
 12 13  1  0  0  0  0
 12 14  1  0  0  0  0
 14 15  2  0  0  0  0
 16 17  1  0  0  0  0
 16 24  1  0  0  0  0
 17 25  1  0  0  0  0
M  END
$$$$
