ZINC000000054928      none
 OpenBabel11202420153D

 23 23  0  0  0  0  0  0  0  0999 V2000
   33.7526   35.6167   54.8571 C   0  0  0  0  0  0  0  0  0  0  0  0
   33.3048   35.7152   56.2926 C   0  0  0  0  0  0  0  0  0  0  0  0
   32.9546   34.5724   56.9875 C   0  0  0  0  0  0  0  0  0  0  0  0
   32.5481   34.6624   58.3055 C   0  0  0  0  0  0  0  0  0  0  0  0
   32.4829   35.8960   58.9262 C   0  0  0  0  0  0  0  0  0  0  0  0
   31.9605   36.0111   60.6050 S   0  0  0  0  0  0  0  0  0  0  0  0
   30.1613   36.2194   60.5059 C   0  0  0  0  0  0  0  0  0  0  0  0
   32.2859   34.7445   61.1609 O   0  0  0  0  0  0  0  0  0  0  0  0
   32.5746   37.2003   61.0824 O   0  0  0  0  0  0  0  0  0  0  0  0
   32.8279   37.0390   58.2299 C   0  0  0  0  0  0  0  0  0  0  0  0
   33.2387   36.9486   56.9129 C   0  0  0  0  0  0  0  0  0  0  0  0
   33.6082   38.1727   56.1671 N   0  0  0  0  0  0  0  0  0  0  0  0
   33.9705   38.0930   55.0070 O   0  0  0  0  0  0  0  0  0  0  0  0
   33.5500   39.2597   56.7137 O   0  0  0  0  0  0  0  0  0  0  0  0
   34.8418   35.6124   54.8158 H   0  0  0  0  0  0  0  0  0  0  0  0
   33.3712   36.4711   54.2981 H   0  0  0  0  0  0  0  0  0  0  0  0
   33.3687   34.6952   54.4192 H   0  0  0  0  0  0  0  0  0  0  0  0
   33.0021   33.6091   56.5016 H   0  0  0  0  0  0  0  0  0  0  0  0
   32.2789   33.7691   58.8497 H   0  0  0  0  0  0  0  0  0  0  0  0
   29.7230   35.3583   60.0015 H   0  0  0  0  0  0  0  0  0  0  0  0
   29.7489   36.3002   61.5117 H   0  0  0  0  0  0  0  0  0  0  0  0
   29.9307   37.1252   59.9450 H   0  0  0  0  0  0  0  0  0  0  0  0
   32.7770   38.0027   58.7147 H   0  0  0  0  0  0  0  0  0  0  0  0
  1  2  1  0  0  0  0
  1 15  1  0  0  0  0
  1 16  1  0  0  0  0
  1 17  1  0  0  0  0
  2 11  2  0  0  0  0
  2  3  1  0  0  0  0
  3  4  2  0  0  0  0
  3 18  1  0  0  0  0
  4  5  1  0  0  0  0
  4 19  1  0  0  0  0
  5  6  1  0  0  0  0
  5 10  2  0  0  0  0
  6  7  1  0  0  0  0
  6  8  2  0  0  0  0
  6  9  2  0  0  0  0
  7 20  1  0  0  0  0
  7 21  1  0  0  0  0
  7 22  1  0  0  0  0
 10 11  1  0  0  0  0
 10 23  1  0  0  0  0
 11 12  1  0  0  0  0
 12 13  2  0  0  0  0
 12 14  2  0  0  0  0
M  END
$$$$
