ZINC000000043536      none
 OpenBabel11202420153D

 27 28  0  0  0  0  0  0  0  0999 V2000
   31.1265   35.9672   62.6599 O   0  0  0  0  0  0  0  0  0  0  0  0
   31.2757   37.1272   62.9909 C   0  0  0  0  0  0  0  0  0  0  0  0
   31.7508   38.0250   62.1052 N   0  0  0  0  0  0  0  0  0  0  0  0
   32.0711   37.6236   60.8098 C   0  0  0  0  0  0  0  0  0  0  0  0
   31.8925   36.2961   60.4361 C   0  0  0  0  0  0  0  0  0  0  0  0
   32.2144   35.9106   59.1470 C   0  0  0  0  0  0  0  0  0  0  0  0
   32.7060   36.8706   58.2716 C   0  0  0  0  0  0  0  0  0  0  0  0
   33.1633   36.4015   56.4976 Br  0  0  0  0  0  0  0  0  0  0  0  0
   32.8579   38.1717   58.7108 C   0  0  0  0  0  0  0  0  0  0  0  0
   32.5372   38.5105   59.9451 N   0  0  0  0  0  0  0  0  0  0  0  0
   30.9360   37.5532   64.3649 C   0  0  0  0  0  0  0  0  0  0  0  0
   29.6476   38.0019   64.6615 C   0  0  0  0  0  0  0  0  0  0  0  0
   29.3389   38.4033   65.9445 C   0  0  0  0  0  0  0  0  0  0  0  0
   30.2999   38.3525   66.9390 C   0  0  0  0  0  0  0  0  0  0  0  0
   31.5783   37.9084   66.6519 C   0  0  0  0  0  0  0  0  0  0  0  0
   31.9020   37.5089   65.3715 C   0  0  0  0  0  0  0  0  0  0  0  0
   33.2702   37.0341   65.0661 N   0  0  0  0  0  0  0  0  0  0  0  0
   33.5543   36.6816   63.9354 O   0  0  0  0  0  0  0  0  0  0  0  0
   34.1120   36.9962   65.9455 O   0  0  0  0  0  0  0  0  0  0  0  0
   31.8699   38.9508   62.3694 H   0  0  0  0  0  0  0  0  0  0  0  0
   31.5082   35.5756   61.1429 H   0  0  0  0  0  0  0  0  0  0  0  0
   32.0859   34.8867   58.8285 H   0  0  0  0  0  0  0  0  0  0  0  0
   33.2394   38.9218   58.0340 H   0  0  0  0  0  0  0  0  0  0  0  0
   28.8958   38.0389   63.8871 H   0  0  0  0  0  0  0  0  0  0  0  0
   28.3438   38.7545   66.1744 H   0  0  0  0  0  0  0  0  0  0  0  0
   30.0517   38.6640   67.9428 H   0  0  0  0  0  0  0  0  0  0  0  0
   32.3247   37.8748   67.4317 H   0  0  0  0  0  0  0  0  0  0  0  0
  1  2  2  0  0  0  0
  2  3  1  0  0  0  0
  2 11  1  0  0  0  0
  3  4  1  0  0  0  0
  3 20  1  0  0  0  0
  4 10  2  0  0  0  0
  4  5  1  0  0  0  0
  5  6  2  0  0  0  0
  5 21  1  0  0  0  0
  6  7  1  0  0  0  0
  6 22  1  0  0  0  0
  7  8  1  0  0  0  0
  7  9  2  0  0  0  0
  9 10  1  0  0  0  0
  9 23  1  0  0  0  0
 11 16  2  0  0  0  0
 11 12  1  0  0  0  0
 12 13  2  0  0  0  0
 12 24  1  0  0  0  0
 13 14  1  0  0  0  0
 13 25  1  0  0  0  0
 14 15  2  0  0  0  0
 14 26  1  0  0  0  0
 15 16  1  0  0  0  0
 15 27  1  0  0  0  0
 16 17  1  0  0  0  0
 17 18  2  0  0  0  0
 17 19  2  0  0  0  0
M  END
$$$$
