ZINC000000036673      none
 OpenBabel11202420153D

 46 48  0  0  0  0  0  0  0  0999 V2000
   32.1759   33.7273   58.8464 O   0  0  0  0  0  0  0  0  0  0  0  0
   32.2490   34.9353   58.9270 C   0  0  0  0  0  0  0  0  0  0  0  0
   31.7378   35.6409   60.1565 C   0  0  0  0  0  0  0  0  0  0  0  0
   30.6290   36.6176   59.7600 C   0  0  0  0  0  0  0  0  0  0  0  0
   30.1306   37.3055   60.9585 N   0  0  0  0  0  0  0  0  0  0  0  0
   29.5063   36.3553   61.8897 C   0  0  0  0  0  0  0  0  0  0  0  0
   28.9310   37.1194   63.0845 C   0  0  0  0  0  0  0  0  0  0  0  0
   30.0066   37.8711   63.7460 N   0  0  0  0  0  0  0  0  0  0  0  0
   29.5327   38.5252   64.8856 C   0  0  0  0  0  0  0  0  0  0  0  0
   28.5168   39.4661   64.7763 C   0  0  0  0  0  0  0  0  0  0  0  0
   28.0509   40.1112   65.9051 C   0  0  0  0  0  0  0  0  0  0  0  0
   28.5948   39.8215   67.1430 C   0  0  0  0  0  0  0  0  0  0  0  0
   29.6062   38.8853   67.2553 C   0  0  0  0  0  0  0  0  0  0  0  0
   30.0768   38.2365   66.1308 C   0  0  0  0  0  0  0  0  0  0  0  0
   30.6309   38.8213   62.8148 C   0  0  0  0  0  0  0  0  0  0  0  0
   31.2063   38.0571   61.6200 C   0  0  0  0  0  0  0  0  0  0  0  0
   32.7876   35.6466   57.9167 N   0  0  0  0  0  0  0  0  0  0  0  0
   33.2621   34.9915   56.7751 C   0  0  0  0  0  0  0  0  0  0  0  0
   33.7693   33.7020   56.8729 C   0  0  0  0  0  0  0  0  0  0  0  0
   34.2316   33.0554   55.7438 C   0  0  0  0  0  0  0  0  0  0  0  0
   34.2015   33.6944   54.5177 C   0  0  0  0  0  0  0  0  0  0  0  0
   33.7022   34.9811   54.4172 C   0  0  0  0  0  0  0  0  0  0  0  0
   33.6655   35.7793   52.8761 Cl  0  0  0  0  0  0  0  0  0  0  0  0
   33.2322   35.6311   55.5433 C   0  0  0  0  0  0  0  0  0  0  0  0
   32.5542   36.1893   60.6266 H   0  0  0  0  0  0  0  0  0  0  0  0
   31.3417   34.9070   60.8584 H   0  0  0  0  0  0  0  0  0  0  0  0
   29.8126   36.0692   59.2901 H   0  0  0  0  0  0  0  0  0  0  0  0
   31.0251   37.3515   59.0582 H   0  0  0  0  0  0  0  0  0  0  0  0
   30.2545   35.6438   62.2392 H   0  0  0  0  0  0  0  0  0  0  0  0
   28.7050   35.8202   61.3803 H   0  0  0  0  0  0  0  0  0  0  0  0
   28.4929   36.4139   63.7906 H   0  0  0  0  0  0  0  0  0  0  0  0
   28.1635   37.8117   62.7381 H   0  0  0  0  0  0  0  0  0  0  0  0
   28.0919   39.6931   63.8097 H   0  0  0  0  0  0  0  0  0  0  0  0
   27.2614   40.8433   65.8207 H   0  0  0  0  0  0  0  0  0  0  0  0
   28.2317   40.3308   68.0234 H   0  0  0  0  0  0  0  0  0  0  0  0
   30.0291   38.6616   68.2237 H   0  0  0  0  0  0  0  0  0  0  0  0
   30.8666   37.5051   66.2193 H   0  0  0  0  0  0  0  0  0  0  0  0
   29.8828   39.5327   62.4653 H   0  0  0  0  0  0  0  0  0  0  0  0
   31.4322   39.3565   63.3242 H   0  0  0  0  0  0  0  0  0  0  0  0
   31.9737   37.3650   61.9664 H   0  0  0  0  0  0  0  0  0  0  0  0
   31.6443   38.7626   60.9140 H   0  0  0  0  0  0  0  0  0  0  0  0
   32.8461   36.6127   57.9811 H   0  0  0  0  0  0  0  0  0  0  0  0
   33.7977   33.2039   57.8307 H   0  0  0  0  0  0  0  0  0  0  0  0
   34.6219   32.0512   55.8190 H   0  0  0  0  0  0  0  0  0  0  0  0
   34.5678   33.1881   53.6368 H   0  0  0  0  0  0  0  0  0  0  0  0
   32.8420   36.6349   55.4646 H   0  0  0  0  0  0  0  0  0  0  0  0
  1  2  2  0  0  0  0
  2  3  1  0  0  0  0
  2 17  1  0  0  0  0
  3  4  1  0  0  0  0
  3 25  1  0  0  0  0
  3 26  1  0  0  0  0
  4  5  1  0  0  0  0
  4 27  1  0  0  0  0
  4 28  1  0  0  0  0
  5 16  1  0  0  0  0
  5  6  1  0  0  0  0
  6  7  1  0  0  0  0
  6 29  1  0  0  0  0
  6 30  1  0  0  0  0
  7  8  1  0  0  0  0
  7 31  1  0  0  0  0
  7 32  1  0  0  0  0
  8  9  1  0  0  0  0
  8 15  1  0  0  0  0
  9 14  2  0  0  0  0
  9 10  1  0  0  0  0
 10 11  2  0  0  0  0
 10 33  1  0  0  0  0
 11 12  1  0  0  0  0
 11 34  1  0  0  0  0
 12 13  2  0  0  0  0
 12 35  1  0  0  0  0
 13 14  1  0  0  0  0
 13 36  1  0  0  0  0
 14 37  1  0  0  0  0
 15 16  1  0  0  0  0
 15 38  1  0  0  0  0
 15 39  1  0  0  0  0
 16 40  1  0  0  0  0
 16 41  1  0  0  0  0
 17 18  1  0  0  0  0
 17 42  1  0  0  0  0
 18 24  2  0  0  0  0
 18 19  1  0  0  0  0
 19 20  2  0  0  0  0
 19 43  1  0  0  0  0
 20 21  1  0  0  0  0
 20 44  1  0  0  0  0
 21 22  2  0  0  0  0
 21 45  1  0  0  0  0
 22 23  1  0  0  0  0
 22 24  1  0  0  0  0
 24 46  1  0  0  0  0
M  END
$$$$
