ZINC000000007995      none
 OpenBabel11202420153D

 26 26  0  0  1  0  0  0  0  0999 V2000
   33.1094   36.9656   66.7165 C   0  0  0  0  0  0  0  0  0  0  0  0
   32.6734   37.1970   65.2927 C   0  0  0  0  0  0  0  0  0  0  0  0
   32.6098   38.3258   64.8539 O   0  0  0  0  0  0  0  0  0  0  0  0
   32.3541   36.1495   64.5071 N   0  0  0  0  0  0  0  0  0  0  0  0
   31.9304   36.3745   63.1228 C   0  0  2  0  0  0  0  0  0  0  0  0
   32.4060   37.2743   62.7328 H   0  0  0  0  0  0  0  0  0  0  0  0
   30.4089   36.5329   63.0701 C   0  0  0  0  0  0  0  0  0  0  0  0
   29.9938   37.3347   61.8498 C   0  0  0  0  0  0  0  0  0  0  0  0
   30.2622   36.6295   60.5329 C   0  0  0  0  0  0  0  0  0  0  0  0
   31.7654   36.4849   60.2882 C   0  0  0  0  0  0  0  0  0  0  0  0
   32.2379   35.2539   60.9424 N   0  0  0  0  0  0  0  0  0  0  0  0
   32.3191   35.1839   62.2718 C   0  0  0  0  0  0  0  0  0  0  0  0
   32.7103   34.1649   62.8007 O   0  0  0  0  0  0  0  0  0  0  0  0
   34.0064   36.3464   66.7258 H   0  0  0  0  0  0  0  0  0  0  0  0
   33.3240   37.9232   67.1911 H   0  0  0  0  0  0  0  0  0  0  0  0
   32.3131   36.4597   67.2628 H   0  0  0  0  0  0  0  0  0  0  0  0
   32.4049   35.2466   64.8581 H   0  0  0  0  0  0  0  0  0  0  0  0
   29.9467   35.5468   63.0258 H   0  0  0  0  0  0  0  0  0  0  0  0
   30.0703   37.0478   63.9692 H   0  0  0  0  0  0  0  0  0  0  0  0
   28.9271   37.5474   61.9196 H   0  0  0  0  0  0  0  0  0  0  0  0
   30.5370   38.2798   61.8533 H   0  0  0  0  0  0  0  0  0  0  0  0
   29.8062   35.6398   60.5569 H   0  0  0  0  0  0  0  0  0  0  0  0
   29.8215   37.2074   59.7207 H   0  0  0  0  0  0  0  0  0  0  0  0
   31.9575   36.4257   59.2169 H   0  0  0  0  0  0  0  0  0  0  0  0
   32.2885   37.3448   60.7066 H   0  0  0  0  0  0  0  0  0  0  0  0
   32.4885   34.4874   60.4033 H   0  0  0  0  0  0  0  0  0  0  0  0
  1  2  1  0  0  0  0
  1 14  1  0  0  0  0
  1 15  1  0  0  0  0
  1 16  1  0  0  0  0
  2  3  2  0  0  0  0
  2  4  1  0  0  0  0
  4  5  1  0  0  0  0
  4 17  1  0  0  0  0
  5  6  1  6  0  0  0
  5 12  1  0  0  0  0
  5  7  1  0  0  0  0
  7  8  1  0  0  0  0
  7 18  1  0  0  0  0
  7 19  1  0  0  0  0
  8  9  1  0  0  0  0
  8 20  1  0  0  0  0
  8 21  1  0  0  0  0
  9 10  1  0  0  0  0
  9 22  1  0  0  0  0
  9 23  1  0  0  0  0
 10 11  1  0  0  0  0
 10 24  1  0  0  0  0
 10 25  1  0  0  0  0
 11 12  1  0  0  0  0
 11 26  1  0  0  0  0
 12 13  2  0  0  0  0
M  END
$$$$
