ZINC000000011609      none
 OpenBabel11202420153D

 23 25  0  0  0  0  0  0  0  0999 V2000
   32.7158   38.9425   58.1479 C   0  0  0  0  0  0  0  0  0  0  0  0
   32.5637   37.4458   58.2350 C   0  0  0  0  0  0  0  0  0  0  0  0
   31.8517   36.7418   59.2200 C   0  0  0  0  0  0  0  0  0  0  0  0
   31.1187   37.3420   60.3556 C   0  0  0  0  0  0  0  0  0  0  0  0
   31.4378   38.5024   60.9618 C   0  0  0  0  0  0  0  0  0  0  0  0
   30.6052   38.8568   62.0040 C   0  0  0  0  0  0  0  0  0  0  0  0
   29.6064   38.0034   62.2454 C   0  0  0  0  0  0  0  0  0  0  0  0
   29.6898   36.6561   61.1184 S   0  0  0  0  0  0  0  0  0  0  0  0
   31.9452   35.4507   58.9533 N   0  0  0  0  0  0  0  0  0  0  0  0
   32.7211   35.2935   57.7981 N   0  0  0  0  0  0  0  0  0  0  0  0
   33.2550   34.3642   56.9212 C   0  0  0  0  0  0  0  0  0  0  0  0
   33.9392   35.0097   55.9812 C   0  0  0  0  0  0  0  0  0  0  0  0
   33.8587   36.3656   56.2352 N   0  0  0  0  0  0  0  0  0  0  0  0
   34.2652   37.0723   55.7095 H   0  0  0  0  0  0  0  0  0  0  0  0
   33.0951   36.5319   57.3730 C   0  0  0  0  0  0  0  0  0  0  0  0
   33.6023   39.2504   58.7026 H   0  0  0  0  0  0  0  0  0  0  0  0
   32.8204   39.2370   57.1036 H   0  0  0  0  0  0  0  0  0  0  0  0
   31.8353   39.4228   58.5744 H   0  0  0  0  0  0  0  0  0  0  0  0
   32.2809   39.1055   60.6587 H   0  0  0  0  0  0  0  0  0  0  0  0
   30.7479   39.7598   62.5789 H   0  0  0  0  0  0  0  0  0  0  0  0
   28.8596   38.1231   63.0164 H   0  0  0  0  0  0  0  0  0  0  0  0
   33.1355   33.2930   56.9896 H   0  0  0  0  0  0  0  0  0  0  0  0
   34.4687   34.5516   55.1588 H   0  0  0  0  0  0  0  0  0  0  0  0
  1  2  1  0  0  0  0
  1 16  1  0  0  0  0
  1 17  1  0  0  0  0
  1 18  1  0  0  0  0
  2 15  2  0  0  0  0
  2  3  1  0  0  0  0
  3  4  1  0  0  0  0
  3  9  2  0  0  0  0
  4  8  1  0  0  0  0
  4  5  2  0  0  0  0
  5  6  1  0  0  0  0
  5 19  1  0  0  0  0
  6  7  2  0  0  0  0
  6 20  1  0  0  0  0
  7  8  1  0  0  0  0
  7 21  1  0  0  0  0
  9 10  1  0  0  0  0
 10 15  1  0  0  0  0
 10 11  1  0  0  0  0
 11 12  2  0  0  0  0
 11 22  1  0  0  0  0
 12 13  1  0  0  0  0
 12 23  1  0  0  0  0
 13 14  1  0  0  0  0
 13 15  1  0  0  0  0
M  END
$$$$
