ZINC000000034707      none
 OpenBabel11202420153D

 44 47  0  0  1  0  0  0  0  0999 V2000
   33.4921   40.0460   57.8631 C   0  0  0  0  0  0  0  0  0  0  0  0
   33.4603   38.7148   57.3446 O   0  0  0  0  0  0  0  0  0  0  0  0
   32.9636   37.7470   58.1594 C   0  0  0  0  0  0  0  0  0  0  0  0
   32.9028   36.4307   57.7201 C   0  0  0  0  0  0  0  0  0  0  0  0
   32.4009   35.4409   58.5429 C   0  0  0  0  0  0  0  0  0  0  0  0
   31.9524   35.7475   59.8152 C   0  0  0  0  0  0  0  0  0  0  0  0
   32.0084   37.0695   60.2605 C   0  0  0  0  0  0  0  0  0  0  0  0
   32.5170   38.0704   59.4288 C   0  0  0  0  0  0  0  0  0  0  0  0
   31.5293   37.4163   61.6130 C   0  0  0  0  0  0  0  0  0  0  0  0
   31.3774   38.5717   61.9479 O   0  0  0  0  0  0  0  0  0  0  0  0
   31.2342   36.2778   62.5674 C   0  0  1  0  0  0  0  0  0  0  0  0
   32.1663   35.8759   62.9646 H   0  0  0  0  0  0  0  0  0  0  0  0
   30.3522   36.7758   63.7142 C   0  0  1  0  0  0  0  0  0  0  0  0
   29.4736   37.8059   63.2574 O   0  0  0  0  0  0  0  0  0  0  0  0
   29.5648   35.6301   64.3139 C   0  0  0  0  0  0  0  0  0  0  0  0
   28.7503   34.9378   63.7408 O   0  0  0  0  0  0  0  0  0  0  0  0
   29.9377   35.5248   65.6005 N   0  0  0  0  0  0  0  0  0  0  0  0
   29.3988   34.5267   66.5277 C   0  0  0  0  0  0  0  0  0  0  0  0
   30.8974   36.4747   65.9519 C   0  0  0  0  0  0  0  0  0  0  0  0
   31.5431   36.7123   67.1638 C   0  0  0  0  0  0  0  0  0  0  0  0
   32.4711   37.7278   67.2666 C   0  0  0  0  0  0  0  0  0  0  0  0
   32.7675   38.5179   66.1708 C   0  0  0  0  0  0  0  0  0  0  0  0
   32.1300   38.2883   64.9641 C   0  0  0  0  0  0  0  0  0  0  0  0
   31.2037   37.2751   64.8588 C   0  0  0  0  0  0  0  0  0  0  0  0
   30.4954   35.1934   61.7719 C   0  0  0  0  0  0  0  0  0  0  0  0
   31.4179   34.6442   60.6873 C   0  0  0  0  0  0  0  0  0  0  0  0
   34.1112   40.0719   58.7599 H   0  0  0  0  0  0  0  0  0  0  0  0
   33.9100   40.7181   57.1135 H   0  0  0  0  0  0  0  0  0  0  0  0
   32.4793   40.3635   58.1114 H   0  0  0  0  0  0  0  0  0  0  0  0
   33.2499   36.1794   56.7287 H   0  0  0  0  0  0  0  0  0  0  0  0
   32.3580   34.4211   58.1903 H   0  0  0  0  0  0  0  0  0  0  0  0
   32.5615   39.0924   59.7752 H   0  0  0  0  0  0  0  0  0  0  0  0
   28.8760   37.5280   62.5497 H   0  0  0  0  0  0  0  0  0  0  0  0
   28.5195   34.9327   67.0277 H   0  0  0  0  0  0  0  0  0  0  0  0
   29.1206   33.6297   65.9745 H   0  0  0  0  0  0  0  0  0  0  0  0
   30.1555   34.2752   67.2709 H   0  0  0  0  0  0  0  0  0  0  0  0
   31.3169   36.1001   68.0242 H   0  0  0  0  0  0  0  0  0  0  0  0
   32.9688   37.9071   68.2082 H   0  0  0  0  0  0  0  0  0  0  0  0
   33.4948   39.3116   66.2564 H   0  0  0  0  0  0  0  0  0  0  0  0
   32.3584   38.9034   64.1062 H   0  0  0  0  0  0  0  0  0  0  0  0
   30.2023   34.3861   62.4431 H   0  0  0  0  0  0  0  0  0  0  0  0
   29.6066   35.6233   61.3100 H   0  0  0  0  0  0  0  0  0  0  0  0
   30.8625   33.9384   60.0698 H   0  0  0  0  0  0  0  0  0  0  0  0
   32.2528   34.1250   61.1580 H   0  0  0  0  0  0  0  0  0  0  0  0
  1  2  1  0  0  0  0
  1 27  1  0  0  0  0
  1 28  1  0  0  0  0
  1 29  1  0  0  0  0
  2  3  1  0  0  0  0
  3  8  2  0  0  0  0
  3  4  1  0  0  0  0
  4  5  2  0  0  0  0
  4 30  1  0  0  0  0
  5  6  1  0  0  0  0
  5 31  1  0  0  0  0
  6 26  1  0  0  0  0
  6  7  2  0  0  0  0
  7  8  1  0  0  0  0
  7  9  1  0  0  0  0
  8 32  1  0  0  0  0
  9 10  2  0  0  0  0
  9 11  1  0  0  0  0
 11 12  1  1  0  0  0
 11 13  1  0  0  0  0
 11 25  1  0  0  0  0
 13 24  1  0  0  0  0
 13 14  1  6  0  0  0
 13 15  1  0  0  0  0
 14 33  1  0  0  0  0
 15 16  2  0  0  0  0
 15 17  1  0  0  0  0
 17 18  1  0  0  0  0
 17 19  1  0  0  0  0
 18 34  1  0  0  0  0
 18 35  1  0  0  0  0
 18 36  1  0  0  0  0
 19 24  2  0  0  0  0
 19 20  1  0  0  0  0
 20 21  2  0  0  0  0
 20 37  1  0  0  0  0
 21 22  1  0  0  0  0
 21 38  1  0  0  0  0
 22 23  2  0  0  0  0
 22 39  1  0  0  0  0
 23 24  1  0  0  0  0
 23 40  1  0  0  0  0
 25 26  1  0  0  0  0
 25 41  1  0  0  0  0
 25 42  1  0  0  0  0
 26 43  1  0  0  0  0
 26 44  1  0  0  0  0
M  END
$$$$
