ZINC000000041003      none
 OpenBabel11202420153D

 33 34  0  0  1  0  0  0  0  0999 V2000
   31.9022   33.2104   56.1033 C   0  0  0  0  0  0  0  0  0  0  0  0
   32.8002   34.4491   56.0987 C   0  0  0  0  0  0  0  0  0  0  0  0
   33.0359   35.0987   57.4638 C   0  0  0  0  0  0  0  0  0  0  0  0
   32.7251   35.3725   54.8802 C   0  0  1  0  0  0  0  0  0  0  0  0
   32.0359   35.0974   54.0817 H   0  0  0  0  0  0  0  0  0  0  0  0
   32.8890   36.8518   55.1165 C   0  0  0  0  0  0  0  0  0  0  0  0
   31.9292   37.5269   55.4227 O   0  0  0  0  0  0  0  0  0  0  0  0
   34.1022   37.4244   54.9876 N   0  0  0  0  0  0  0  0  0  0  0  0
   34.2616   38.8625   55.2172 C   0  0  0  0  0  0  0  0  0  0  0  0
   34.7820   39.5167   53.9633 C   0  0  0  0  0  0  0  0  0  0  0  0
   35.0555   38.8906   52.8047 C   0  0  0  0  0  0  0  0  0  0  0  0
   35.5165   39.8782   51.9041 C   0  0  0  0  0  0  0  0  0  0  0  0
   35.4972   41.0489   52.5664 C   0  0  0  0  0  0  0  0  0  0  0  0
   35.0460   40.8248   53.8114 O   0  0  0  0  0  0  0  0  0  0  0  0
   33.9519   34.4830   55.0920 C   0  0  2  0  0  0  0  0  0  0  0  0
   34.8774   34.9678   55.4023 H   0  0  0  0  0  0  0  0  0  0  0  0
   34.1149   33.2939   54.1808 C   0  0  0  0  0  0  0  0  0  0  0  0
   34.8688   32.2834   54.5484 C   0  0  0  0  0  0  0  0  0  0  0  0
   35.0507   30.9102   53.5019 Cl  0  0  0  0  0  0  0  0  0  0  0  0
   35.6835   32.3206   56.0809 Cl  0  0  0  0  0  0  0  0  0  0  0  0
   32.0601   32.6507   57.0252 H   0  0  0  0  0  0  0  0  0  0  0  0
   30.8586   33.5180   56.0392 H   0  0  0  0  0  0  0  0  0  0  0  0
   32.1483   32.5799   55.2489 H   0  0  0  0  0  0  0  0  0  0  0  0
   33.9836   35.6370   57.4512 H   0  0  0  0  0  0  0  0  0  0  0  0
   32.2254   35.7949   57.6796 H   0  0  0  0  0  0  0  0  0  0  0  0
   33.0664   34.3271   58.2330 H   0  0  0  0  0  0  0  0  0  0  0  0
   34.8699   36.8844   54.7427 H   0  0  0  0  0  0  0  0  0  0  0  0
   33.2976   39.2975   55.4807 H   0  0  0  0  0  0  0  0  0  0  0  0
   34.9680   39.0243   56.0314 H   0  0  0  0  0  0  0  0  0  0  0  0
   34.9447   37.8356   52.6014 H   0  0  0  0  0  0  0  0  0  0  0  0
   35.8246   39.7227   50.8808 H   0  0  0  0  0  0  0  0  0  0  0  0
   35.7900   42.0073   52.1637 H   0  0  0  0  0  0  0  0  0  0  0  0
   33.6079   33.2706   53.2274 H   0  0  0  0  0  0  0  0  0  0  0  0
  1  2  1  0  0  0  0
  1 21  1  0  0  0  0
  1 22  1  0  0  0  0
  1 23  1  0  0  0  0
  2 15  1  0  0  0  0
  2  3  1  0  0  0  0
  2  4  1  0  0  0  0
  3 24  1  0  0  0  0
  3 25  1  0  0  0  0
  3 26  1  0  0  0  0
  4  5  1  6  0  0  0
  4  6  1  0  0  0  0
  4 15  1  0  0  0  0
  6  7  2  0  0  0  0
  6  8  1  0  0  0  0
  8  9  1  0  0  0  0
  8 27  1  0  0  0  0
  9 10  1  0  0  0  0
  9 28  1  0  0  0  0
  9 29  1  0  0  0  0
 10 14  1  0  0  0  0
 10 11  2  0  0  0  0
 11 12  1  0  0  0  0
 11 30  1  0  0  0  0
 12 13  2  0  0  0  0
 12 31  1  0  0  0  0
 13 14  1  0  0  0  0
 13 32  1  0  0  0  0
 15 16  1  1  0  0  0
 15 17  1  0  0  0  0
 17 18  2  0  0  0  0
 17 33  1  0  0  0  0
 18 19  1  0  0  0  0
 18 20  1  0  0  0  0
M  END
$$$$
