ZINC000000036440      none
 OpenBabel11202420153D

 36 37  0  0  1  0  0  0  0  0999 V2000
   32.0607   37.2173   64.0935 C   0  0  0  0  0  0  0  0  0  0  0  0
   31.1635   36.5606   63.0764 C   0  0  0  0  0  0  0  0  0  0  0  0
   29.9952   37.0564   62.8403 N   0  0  0  0  0  0  0  0  0  0  0  0
   29.1701   36.5196   61.9274 C   0  0  0  0  0  0  0  0  0  0  0  0
   27.9957   36.8356   61.9267 O   0  0  0  0  0  0  0  0  0  0  0  0
   29.6154   35.6378   61.0122 N   0  0  0  0  0  0  0  0  0  0  0  0
   31.0448   35.3211   60.9341 C   0  0  1  0  0  0  0  0  0  0  0  0
   31.1757   34.3341   60.4906 H   0  0  0  0  0  0  0  0  0  0  0  0
   31.7438   36.3518   60.0855 C   0  0  0  0  0  0  0  0  0  0  0  0
   31.7169   37.6838   60.4554 C   0  0  0  0  0  0  0  0  0  0  0  0
   32.3568   38.6305   59.6792 C   0  0  0  0  0  0  0  0  0  0  0  0
   33.0269   38.2438   58.5276 C   0  0  0  0  0  0  0  0  0  0  0  0
   33.6573   39.1733   57.7624 O   0  0  0  0  0  0  0  0  0  0  0  0
   33.0476   36.9075   58.1556 C   0  0  0  0  0  0  0  0  0  0  0  0
   32.4114   35.9638   58.9385 C   0  0  0  0  0  0  0  0  0  0  0  0
   31.6388   35.3313   62.3452 C   0  0  2  0  0  0  0  0  0  0  0  0
   31.1919   34.0988   63.0882 C   0  0  0  0  0  0  0  0  0  0  0  0
   31.4730   33.0028   62.6644 O   0  0  0  0  0  0  0  0  0  0  0  0
   30.4815   34.2185   64.2208 O   0  0  0  0  0  0  0  0  0  0  0  0
   29.5429   33.1535   64.5261 C   0  0  0  0  0  0  0  0  0  0  0  0
   28.8316   33.4630   65.8448 C   0  0  0  0  0  0  0  0  0  0  0  0
   28.1411   34.6740   65.7290 F   0  0  0  0  0  0  0  0  0  0  0  0
   27.9272   32.4368   66.1386 F   0  0  0  0  0  0  0  0  0  0  0  0
   29.7759   33.5609   66.8722 F   0  0  0  0  0  0  0  0  0  0  0  0
   32.6783   37.9690   63.6018 H   0  0  0  0  0  0  0  0  0  0  0  0
   31.4517   37.6934   64.8618 H   0  0  0  0  0  0  0  0  0  0  0  0
   32.7015   36.4645   64.5526 H   0  0  0  0  0  0  0  0  0  0  0  0
   28.9911   35.2111   60.4048 H   0  0  0  0  0  0  0  0  0  0  0  0
   31.1953   37.9843   61.3522 H   0  0  0  0  0  0  0  0  0  0  0  0
   32.3357   39.6708   59.9686 H   0  0  0  0  0  0  0  0  0  0  0  0
   33.5838   40.0763   58.1002 H   0  0  0  0  0  0  0  0  0  0  0  0
   33.5649   36.6046   57.2572 H   0  0  0  0  0  0  0  0  0  0  0  0
   32.4316   34.9226   58.6521 H   0  0  0  0  0  0  0  0  0  0  0  0
   32.7269   35.3436   62.2819 H   0  0  0  0  0  0  0  0  0  0  0  0
   28.8072   33.0771   63.7254 H   0  0  0  0  0  0  0  0  0  0  0  0
   30.0811   32.2099   64.6162 H   0  0  0  0  0  0  0  0  0  0  0  0
  1  2  1  0  0  0  0
  1 25  1  0  0  0  0
  1 26  1  0  0  0  0
  1 27  1  0  0  0  0
  2 16  1  0  0  0  0
  2  3  2  0  0  0  0
  3  4  1  0  0  0  0
  4  5  2  0  0  0  0
  4  6  1  0  0  0  0
  6  7  1  0  0  0  0
  6 28  1  0  0  0  0
  7  8  1  6  0  0  0
  7  9  1  0  0  0  0
  7 16  1  0  0  0  0
  9 15  2  0  0  0  0
  9 10  1  0  0  0  0
 10 11  2  0  0  0  0
 10 29  1  0  0  0  0
 11 12  1  0  0  0  0
 11 30  1  0  0  0  0
 12 13  1  0  0  0  0
 12 14  2  0  0  0  0
 13 31  1  0  0  0  0
 14 15  1  0  0  0  0
 14 32  1  0  0  0  0
 15 33  1  0  0  0  0
 16 17  1  0  0  0  0
 16 34  1  6  0  0  0
 17 18  2  0  0  0  0
 17 19  1  0  0  0  0
 19 20  1  0  0  0  0
 20 21  1  0  0  0  0
 20 35  1  0  0  0  0
 20 36  1  0  0  0  0
 21 22  1  0  0  0  0
 21 23  1  0  0  0  0
 21 24  1  0  0  0  0
M  END
$$$$
