ZINC000000030456      none
 OpenBabel11202420163D

 33 34  0  0  1  0  0  0  0  0999 V2000
   31.2685   38.4598   61.9117 O   0  0  0  0  0  0  0  0  0  0  0  0
   31.7345   37.3451   61.8054 C   0  0  0  0  0  0  0  0  0  0  0  0
   31.5838   36.5856   60.5126 C   0  0  0  0  0  0  0  0  0  0  0  0
   32.2349   37.3603   59.3960 C   0  0  0  0  0  0  0  0  0  0  0  0
   32.7873   36.6900   58.3205 C   0  0  0  0  0  0  0  0  0  0  0  0
   33.3803   37.4004   57.2938 C   0  0  0  0  0  0  0  0  0  0  0  0
   33.4304   38.7816   57.3476 C   0  0  0  0  0  0  0  0  0  0  0  0
   34.2486   39.7538   55.9471 Br  0  0  0  0  0  0  0  0  0  0  0  0
   32.8822   39.4517   58.4265 C   0  0  0  0  0  0  0  0  0  0  0  0
   32.2847   38.7407   59.4502 C   0  0  0  0  0  0  0  0  0  0  0  0
   32.3867   36.7856   62.8436 N   0  0  0  0  0  0  0  0  0  0  0  0
   32.5331   37.5239   64.1006 C   0  0  0  0  0  0  0  0  0  0  0  0
   31.3441   37.2173   65.0134 C   0  0  2  0  0  0  0  0  0  0  0  0
   30.4165   37.5169   64.5255 H   0  0  0  0  0  0  0  0  0  0  0  0
   31.5011   37.9740   66.3498 C   0  0  0  0  0  0  0  0  0  0  0  0
   30.9903   36.9273   67.3807 C   0  0  0  0  0  0  0  0  0  0  0  0
   31.4664   35.6084   66.7214 C   0  0  0  0  0  0  0  0  0  0  0  0
   31.3072   35.8162   65.3091 O   0  0  0  0  0  0  0  0  0  0  0  0
   32.0626   35.6108   60.6059 H   0  0  0  0  0  0  0  0  0  0  0  0
   30.5249   36.4505   60.2918 H   0  0  0  0  0  0  0  0  0  0  0  0
   32.7518   35.6114   58.2806 H   0  0  0  0  0  0  0  0  0  0  0  0
   33.8085   36.8768   56.4518 H   0  0  0  0  0  0  0  0  0  0  0  0
   32.9208   40.5302   58.4688 H   0  0  0  0  0  0  0  0  0  0  0  0
   31.8570   39.2638   60.2928 H   0  0  0  0  0  0  0  0  0  0  0  0
   32.7594   35.8941   62.7587 H   0  0  0  0  0  0  0  0  0  0  0  0
   32.5648   38.5933   63.8922 H   0  0  0  0  0  0  0  0  0  0  0  0
   33.4570   37.2222   64.5937 H   0  0  0  0  0  0  0  0  0  0  0  0
   32.5461   38.2230   66.5342 H   0  0  0  0  0  0  0  0  0  0  0  0
   30.8795   38.8694   66.3640 H   0  0  0  0  0  0  0  0  0  0  0  0
   29.9038   36.9551   67.4637 H   0  0  0  0  0  0  0  0  0  0  0  0
   31.4600   37.0721   68.3535 H   0  0  0  0  0  0  0  0  0  0  0  0
   30.8477   34.7747   67.0534 H   0  0  0  0  0  0  0  0  0  0  0  0
   32.5134   35.4224   66.9608 H   0  0  0  0  0  0  0  0  0  0  0  0
  1  2  2  0  0  0  0
  2  3  1  0  0  0  0
  2 11  1  0  0  0  0
  3  4  1  0  0  0  0
  3 19  1  0  0  0  0
  3 20  1  0  0  0  0
  4 10  2  0  0  0  0
  4  5  1  0  0  0  0
  5  6  2  0  0  0  0
  5 21  1  0  0  0  0
  6  7  1  0  0  0  0
  6 22  1  0  0  0  0
  7  8  1  0  0  0  0
  7  9  2  0  0  0  0
  9 10  1  0  0  0  0
  9 23  1  0  0  0  0
 10 24  1  0  0  0  0
 11 12  1  0  0  0  0
 11 25  1  0  0  0  0
 12 13  1  0  0  0  0
 12 26  1  0  0  0  0
 12 27  1  0  0  0  0
 13 14  1  6  0  0  0
 13 18  1  0  0  0  0
 13 15  1  0  0  0  0
 15 16  1  0  0  0  0
 15 28  1  0  0  0  0
 15 29  1  0  0  0  0
 16 17  1  0  0  0  0
 16 30  1  0  0  0  0
 16 31  1  0  0  0  0
 17 18  1  0  0  0  0
 17 32  1  0  0  0  0
 17 33  1  0  0  0  0
M  END
$$$$
