ZINC000000039805      none
 OpenBabel11202420153D

 23 24  0  0  0  0  0  0  0  0999 V2000
   31.2677   36.5576   62.0769 O   0  0  0  0  0  0  0  0  0  0  0  0
   31.7760   36.9717   60.8884 C   0  0  0  0  0  0  0  0  0  0  0  0
   31.9246   36.0632   59.8445 C   0  0  0  0  0  0  0  0  0  0  0  0
   32.4333   36.4747   58.6346 C   0  0  0  0  0  0  0  0  0  0  0  0
   32.8137   37.8105   58.4544 C   0  0  0  0  0  0  0  0  0  0  0  0
   33.3618   38.2535   57.1676 C   0  0  0  0  0  0  0  0  0  0  0  0
   33.4960   37.4005   56.1858 N   0  0  0  0  0  0  0  0  0  0  0  0
   34.0094   37.8100   54.9947 C   0  0  0  0  0  0  0  0  0  0  0  0
   34.4162   39.0266   54.6918 N   0  0  0  0  0  0  0  0  0  0  0  0
   34.8423   39.0521   53.4795 N   0  0  0  0  0  0  0  0  0  0  0  0
   34.7354   37.8681   52.9399 C   0  0  0  0  0  0  0  0  0  0  0  0
   34.2081   37.0349   53.8818 N   0  0  0  0  0  0  0  0  0  0  0  0
   34.0123   36.0898   53.7839 H   0  0  0  0  0  0  0  0  0  0  0  0
   32.6626   38.7257   59.5101 C   0  0  0  0  0  0  0  0  0  0  0  0
   33.0240   40.0231   59.3438 O   0  0  0  0  0  0  0  0  0  0  0  0
   32.1445   38.2986   60.7198 C   0  0  0  0  0  0  0  0  0  0  0  0
   31.0396   35.6182   62.1014 H   0  0  0  0  0  0  0  0  0  0  0  0
   31.6353   35.0320   59.9837 H   0  0  0  0  0  0  0  0  0  0  0  0
   32.5432   35.7675   57.8258 H   0  0  0  0  0  0  0  0  0  0  0  0
   33.6586   39.2831   57.0328 H   0  0  0  0  0  0  0  0  0  0  0  0
   35.0173   37.5971   51.9331 H   0  0  0  0  0  0  0  0  0  0  0  0
   32.8823   40.5740   60.1257 H   0  0  0  0  0  0  0  0  0  0  0  0
   32.0271   38.9988   61.5337 H   0  0  0  0  0  0  0  0  0  0  0  0
  1  2  1  0  0  0  0
  1 17  1  0  0  0  0
  2 16  2  0  0  0  0
  2  3  1  0  0  0  0
  3  4  2  0  0  0  0
  3 18  1  0  0  0  0
  4  5  1  0  0  0  0
  4 19  1  0  0  0  0
  5  6  1  0  0  0  0
  5 14  2  0  0  0  0
  6  7  2  0  0  0  0
  6 20  1  0  0  0  0
  7  8  1  0  0  0  0
  8 12  1  0  0  0  0
  8  9  2  0  0  0  0
  9 10  1  0  0  0  0
 10 11  2  0  0  0  0
 11 12  1  0  0  0  0
 11 21  1  0  0  0  0
 12 13  1  0  0  0  0
 14 15  1  0  0  0  0
 14 16  1  0  0  0  0
 15 22  1  0  0  0  0
 16 23  1  0  0  0  0
M  END
$$$$
