ZINC000000037285      none
 OpenBabel11202420153D

 37 38  0  0  0  0  0  0  0  0999 V2000
   31.2696   34.2004   59.0185 S   0  0  0  0  0  0  0  0  0  0  0  0
   32.1767   35.6180   58.7049 C   0  0  0  0  0  0  0  0  0  0  0  0
   32.8608   35.7387   57.5500 N   0  0  0  0  0  0  0  0  0  0  0  0
   32.8282   34.6567   56.5628 C   0  0  0  0  0  0  0  0  0  0  0  0
   33.9715   33.6785   56.8403 C   0  0  0  0  0  0  0  0  0  0  0  0
   33.9373   32.5486   55.8092 C   0  0  0  0  0  0  0  0  0  0  0  0
   34.0970   33.1346   54.4050 C   0  0  0  0  0  0  0  0  0  0  0  0
   32.9537   34.1127   54.1275 C   0  0  0  0  0  0  0  0  0  0  0  0
   32.9877   35.2427   55.1584 C   0  0  0  0  0  0  0  0  0  0  0  0
   32.2066   36.6134   59.6130 N   0  0  0  0  0  0  0  0  0  0  0  0
   31.5131   36.4911   60.7835 N   0  0  0  0  0  0  0  0  0  0  0  0
   32.4242   36.4814   61.9372 C   0  0  0  0  0  0  0  0  0  0  0  0
   31.6123   36.2843   63.2202 C   0  0  0  0  0  0  0  0  0  0  0  0
   30.6250   37.3144   63.3176 O   0  0  0  0  0  0  0  0  0  0  0  0
   29.7204   37.3512   62.2106 C   0  0  0  0  0  0  0  0  0  0  0  0
   30.5129   37.5603   60.9174 C   0  0  0  0  0  0  0  0  0  0  0  0
   33.3748   36.5419   57.3724 H   0  0  0  0  0  0  0  0  0  0  0  0
   31.8757   34.1312   56.6312 H   0  0  0  0  0  0  0  0  0  0  0  0
   34.9239   34.2042   56.7719 H   0  0  0  0  0  0  0  0  0  0  0  0
   33.8578   33.2612   57.8408 H   0  0  0  0  0  0  0  0  0  0  0  0
   32.9849   32.0231   55.8775 H   0  0  0  0  0  0  0  0  0  0  0  0
   34.7518   31.8517   56.0069 H   0  0  0  0  0  0  0  0  0  0  0  0
   34.0727   32.3295   53.6705 H   0  0  0  0  0  0  0  0  0  0  0  0
   35.0494   33.6601   54.3366 H   0  0  0  0  0  0  0  0  0  0  0  0
   32.0012   33.5872   54.1959 H   0  0  0  0  0  0  0  0  0  0  0  0
   33.0673   34.5301   53.1271 H   0  0  0  0  0  0  0  0  0  0  0  0
   32.1733   35.9395   54.9609 H   0  0  0  0  0  0  0  0  0  0  0  0
   33.9401   35.7683   55.0901 H   0  0  0  0  0  0  0  0  0  0  0  0
   32.7206   37.4168   59.4355 H   0  0  0  0  0  0  0  0  0  0  0  0
   32.9581   37.4305   61.9867 H   0  0  0  0  0  0  0  0  0  0  0  0
   33.1394   35.6659   61.8302 H   0  0  0  0  0  0  0  0  0  0  0  0
   32.2768   36.3343   64.0827 H   0  0  0  0  0  0  0  0  0  0  0  0
   31.1218   35.3113   63.1945 H   0  0  0  0  0  0  0  0  0  0  0  0
   29.1747   36.4093   62.1548 H   0  0  0  0  0  0  0  0  0  0  0  0
   29.0160   38.1725   62.3433 H   0  0  0  0  0  0  0  0  0  0  0  0
   29.8335   37.5321   60.0655 H   0  0  0  0  0  0  0  0  0  0  0  0
   31.0157   38.5269   60.9509 H   0  0  0  0  0  0  0  0  0  0  0  0
  1  2  2  0  0  0  0
  2  3  1  0  0  0  0
  2 10  1  0  0  0  0
  3  4  1  0  0  0  0
  3 17  1  0  0  0  0
  4  9  1  0  0  0  0
  4  5  1  0  0  0  0
  4 18  1  0  0  0  0
  5  6  1  0  0  0  0
  5 19  1  0  0  0  0
  5 20  1  0  0  0  0
  6  7  1  0  0  0  0
  6 21  1  0  0  0  0
  6 22  1  0  0  0  0
  7  8  1  0  0  0  0
  7 23  1  0  0  0  0
  7 24  1  0  0  0  0
  8  9  1  0  0  0  0
  8 25  1  0  0  0  0
  8 26  1  0  0  0  0
  9 27  1  0  0  0  0
  9 28  1  0  0  0  0
 10 11  1  0  0  0  0
 10 29  1  0  0  0  0
 11 16  1  0  0  0  0
 11 12  1  0  0  0  0
 12 13  1  0  0  0  0
 12 30  1  0  0  0  0
 12 31  1  0  0  0  0
 13 14  1  0  0  0  0
 13 32  1  0  0  0  0
 13 33  1  0  0  0  0
 14 15  1  0  0  0  0
 15 16  1  0  0  0  0
 15 34  1  0  0  0  0
 15 35  1  0  0  0  0
 16 36  1  0  0  0  0
 16 37  1  0  0  0  0
M  END
$$$$
