ZINC000000040752      none
 OpenBabel11202420153D

 28 29  0  0  1  0  0  0  0  0999 V2000
   33.4531   37.4334   66.9551 O   0  0  0  0  0  0  0  0  0  0  0  0
   32.4178   37.4117   65.9703 C   0  0  2  0  0  0  0  0  0  0  0  0
   32.9105   36.6671   64.7264 C   0  0  0  0  0  0  0  0  0  0  0  0
   31.8194   36.6985   63.6536 C   0  0  0  0  0  0  0  0  0  0  0  0
   31.5014   38.0923   63.3178 N   0  0  0  0  0  0  0  0  0  0  0  0
   30.5581   38.1609   62.1938 C   0  0  0  0  0  0  0  0  0  0  0  0
   30.9199   37.1159   61.1700 C   0  0  0  0  0  0  0  0  0  0  0  0
   30.4498   35.8681   61.1464 C   0  0  0  0  0  0  0  0  0  0  0  0
   30.9249   35.0851   60.1081 C   0  0  0  0  0  0  0  0  0  0  0  0
   31.7813   35.6983   59.2883 C   0  0  0  0  0  0  0  0  0  0  0  0
   32.6054   34.9066   57.7817 Br  0  0  0  0  0  0  0  0  0  0  0  0
   32.0204   37.3579   59.8196 S   0  0  0  0  0  0  0  0  0  0  0  0
   30.9817   38.8146   64.4860 C   0  0  0  0  0  0  0  0  0  0  0  0
   32.0476   38.8462   65.5837 C   0  0  0  0  0  0  0  0  0  0  0  0
   33.2095   37.8903   67.7718 H   0  0  0  0  0  0  0  0  0  0  0  0
   31.5411   36.9056   66.3745 H   0  0  0  0  0  0  0  0  0  0  0  0
   33.1352   35.6327   64.9866 H   0  0  0  0  0  0  0  0  0  0  0  0
   33.8100   37.1500   64.3448 H   0  0  0  0  0  0  0  0  0  0  0  0
   30.9250   36.2027   64.0305 H   0  0  0  0  0  0  0  0  0  0  0  0
   32.1726   36.1816   62.7614 H   0  0  0  0  0  0  0  0  0  0  0  0
   30.6083   39.1494   61.7372 H   0  0  0  0  0  0  0  0  0  0  0  0
   29.5465   37.9792   62.5568 H   0  0  0  0  0  0  0  0  0  0  0  0
   29.7511   35.4964   61.8814 H   0  0  0  0  0  0  0  0  0  0  0  0
   30.6251   34.0566   59.9716 H   0  0  0  0  0  0  0  0  0  0  0  0
   30.7263   39.8345   64.1983 H   0  0  0  0  0  0  0  0  0  0  0  0
   30.0912   38.3087   64.8591 H   0  0  0  0  0  0  0  0  0  0  0  0
   31.6559   39.3689   66.4563 H   0  0  0  0  0  0  0  0  0  0  0  0
   32.9336   39.3644   65.2165 H   0  0  0  0  0  0  0  0  0  0  0  0
  1  2  1  0  0  0  0
  1 15  1  0  0  0  0
  2 14  1  0  0  0  0
  2  3  1  0  0  0  0
  2 16  1  1  0  0  0
  3  4  1  0  0  0  0
  3 17  1  0  0  0  0
  3 18  1  0  0  0  0
  4  5  1  0  0  0  0
  4 19  1  0  0  0  0
  4 20  1  0  0  0  0
  5  6  1  0  0  0  0
  5 13  1  0  0  0  0
  6  7  1  0  0  0  0
  6 21  1  0  0  0  0
  6 22  1  0  0  0  0
  7 12  1  0  0  0  0
  7  8  2  0  0  0  0
  8  9  1  0  0  0  0
  8 23  1  0  0  0  0
  9 10  2  0  0  0  0
  9 24  1  0  0  0  0
 10 11  1  0  0  0  0
 10 12  1  0  0  0  0
 13 14  1  0  0  0  0
 13 25  1  0  0  0  0
 13 26  1  0  0  0  0
 14 27  1  0  0  0  0
 14 28  1  0  0  0  0
M  END
$$$$
