ZINC000000038779      none
 OpenBabel11202420153D

 36 37  0  0  0  0  0  0  0  0999 V2000
   33.2182   33.1429   53.1861 C   0  0  0  0  0  0  0  0  0  0  0  0
   34.1229   32.6793   54.3297 C   0  0  0  0  0  0  0  0  0  0  0  0
   33.8985   33.5558   55.5348 C   0  0  0  0  0  0  0  0  0  0  0  0
   34.8183   34.1954   55.9992 O   0  0  0  0  0  0  0  0  0  0  0  0
   32.6755   33.6291   56.0965 N   0  0  0  0  0  0  0  0  0  0  0  0
   32.4681   34.4393   57.2103 C   0  0  0  0  0  0  0  0  0  0  0  0
   32.0254   33.8849   58.4038 C   0  0  0  0  0  0  0  0  0  0  0  0
   31.8198   34.6898   59.5060 C   0  0  0  0  0  0  0  0  0  0  0  0
   32.0530   36.0537   59.4318 C   0  0  0  0  0  0  0  0  0  0  0  0
   32.4929   36.6214   58.2558 C   0  0  0  0  0  0  0  0  0  0  0  0
   32.7052   35.8197   57.1317 C   0  0  0  0  0  0  0  0  0  0  0  0
   33.1761   36.4209   55.8699 C   0  0  0  0  0  0  0  0  0  0  0  0
   32.8624   35.9240   54.8054 O   0  0  0  0  0  0  0  0  0  0  0  0
   33.9540   37.5212   55.8968 N   0  0  0  0  0  0  0  0  0  0  0  0
   34.4004   38.0914   54.7004 C   0  0  0  0  0  0  0  0  0  0  0  0
   34.6284   39.4593   54.6239 C   0  0  0  0  0  0  0  0  0  0  0  0
   35.0733   40.0186   53.4420 C   0  0  0  0  0  0  0  0  0  0  0  0
   35.2819   39.2197   52.3327 C   0  0  0  0  0  0  0  0  0  0  0  0
   35.0511   37.8581   52.4042 C   0  0  0  0  0  0  0  0  0  0  0  0
   34.6108   37.2919   53.5844 C   0  0  0  0  0  0  0  0  0  0  0  0
   33.4540   34.1765   52.9326 H   0  0  0  0  0  0  0  0  0  0  0  0
   33.3806   32.5089   52.3145 H   0  0  0  0  0  0  0  0  0  0  0  0
   32.1757   33.0737   53.4967 H   0  0  0  0  0  0  0  0  0  0  0  0
   35.1654   32.7484   54.0191 H   0  0  0  0  0  0  0  0  0  0  0  0
   33.8871   31.6457   54.5832 H   0  0  0  0  0  0  0  0  0  0  0  0
   31.9398   33.1176   55.7250 H   0  0  0  0  0  0  0  0  0  0  0  0
   31.8415   32.8228   58.4696 H   0  0  0  0  0  0  0  0  0  0  0  0
   31.4754   34.2538   60.4321 H   0  0  0  0  0  0  0  0  0  0  0  0
   31.8847   36.6754   60.2987 H   0  0  0  0  0  0  0  0  0  0  0  0
   32.6728   37.6850   58.2033 H   0  0  0  0  0  0  0  0  0  0  0  0
   34.2042   37.9177   56.7460 H   0  0  0  0  0  0  0  0  0  0  0  0
   34.4614   40.0844   55.4885 H   0  0  0  0  0  0  0  0  0  0  0  0
   35.2544   41.0817   53.3829 H   0  0  0  0  0  0  0  0  0  0  0  0
   35.6255   39.6602   51.4084 H   0  0  0  0  0  0  0  0  0  0  0  0
   35.2151   37.2370   51.5361 H   0  0  0  0  0  0  0  0  0  0  0  0
   34.4302   36.2285   53.6393 H   0  0  0  0  0  0  0  0  0  0  0  0
  1  2  1  0  0  0  0
  1 21  1  0  0  0  0
  1 22  1  0  0  0  0
  1 23  1  0  0  0  0
  2  3  1  0  0  0  0
  2 24  1  0  0  0  0
  2 25  1  0  0  0  0
  3  4  2  0  0  0  0
  3  5  1  0  0  0  0
  5  6  1  0  0  0  0
  5 26  1  0  0  0  0
  6 11  2  0  0  0  0
  6  7  1  0  0  0  0
  7  8  2  0  0  0  0
  7 27  1  0  0  0  0
  8  9  1  0  0  0  0
  8 28  1  0  0  0  0
  9 10  2  0  0  0  0
  9 29  1  0  0  0  0
 10 11  1  0  0  0  0
 10 30  1  0  0  0  0
 11 12  1  0  0  0  0
 12 13  2  0  0  0  0
 12 14  1  0  0  0  0
 14 15  1  0  0  0  0
 14 31  1  0  0  0  0
 15 20  2  0  0  0  0
 15 16  1  0  0  0  0
 16 17  2  0  0  0  0
 16 32  1  0  0  0  0
 17 18  1  0  0  0  0
 17 33  1  0  0  0  0
 18 19  2  0  0  0  0
 18 34  1  0  0  0  0
 19 20  1  0  0  0  0
 19 35  1  0  0  0  0
 20 36  1  0  0  0  0
M  END
$$$$
