ZINC000000018317      none
 OpenBabel11202420153D

 33 37  0  0  0  0  0  0  0  0999 V2000
   31.4134   38.8135   62.4914 O   0  0  0  0  0  0  0  0  0  0  0  0
   31.6724   38.0907   61.5463 C   0  0  0  0  0  0  0  0  0  0  0  0
   32.1956   38.6015   60.4144 N   0  0  0  0  0  0  0  0  0  0  0  0
   32.3680   39.5541   60.3526 H   0  0  0  0  0  0  0  0  0  0  0  0
   32.4925   37.7745   59.3302 C   0  0  0  0  0  0  0  0  0  0  0  0
   32.2613   36.4534   59.3952 C   0  0  0  0  0  0  0  0  0  0  0  0
   31.7269   35.8723   60.5297 N   0  0  0  0  0  0  0  0  0  0  0  0
   31.4036   34.5915   60.8471 C   0  0  0  0  0  0  0  0  0  0  0  0
   30.9102   34.6066   62.1110 C   0  0  0  0  0  0  0  0  0  0  0  0
   30.9251   35.8621   62.5549 N   0  0  0  0  0  0  0  0  0  0  0  0
   31.4198   36.6447   61.6180 C   0  0  0  0  0  0  0  0  0  0  0  0
   32.6812   35.8343   58.0801 C   0  0  0  0  0  0  0  0  0  0  0  0
   33.1890   36.9762   57.2362 C   0  0  0  0  0  0  0  0  0  0  0  0
   33.6991   37.0429   55.9606 C   0  0  0  0  0  0  0  0  0  0  0  0
   34.0947   38.2684   55.4362 C   0  0  0  0  0  0  0  0  0  0  0  0
   34.6144   38.3395   54.1366 N   0  0  0  0  0  0  0  0  0  0  0  0
   34.7851   37.2918   53.2687 C   0  0  0  0  0  0  0  0  0  0  0  0
   35.3095   37.8032   52.1386 C   0  0  0  0  0  0  0  0  0  0  0  0
   35.4570   39.1258   52.3063 N   0  0  0  0  0  0  0  0  0  0  0  0
   35.0389   39.4600   53.4967 C   0  0  0  0  0  0  0  0  0  0  0  0
   33.9743   39.4228   56.2006 C   0  0  0  0  0  0  0  0  0  0  0  0
   33.4638   39.3594   57.4785 C   0  0  0  0  0  0  0  0  0  0  0  0
   33.0647   38.1293   58.0101 C   0  0  0  0  0  0  0  0  0  0  0  0
   31.5178   33.7247   60.2130 H   0  0  0  0  0  0  0  0  0  0  0  0
   30.5601   33.7463   62.6621 H   0  0  0  0  0  0  0  0  0  0  0  0
   31.8264   35.3605   57.5975 H   0  0  0  0  0  0  0  0  0  0  0  0
   33.4744   35.1048   58.2432 H   0  0  0  0  0  0  0  0  0  0  0  0
   33.7925   36.1451   55.3676 H   0  0  0  0  0  0  0  0  0  0  0  0
   34.5452   36.2556   53.4555 H   0  0  0  0  0  0  0  0  0  0  0  0
   35.5662   37.2449   51.2505 H   0  0  0  0  0  0  0  0  0  0  0  0
   35.0335   40.4597   53.9054 H   0  0  0  0  0  0  0  0  0  0  0  0
   34.2819   40.3735   55.7908 H   0  0  0  0  0  0  0  0  0  0  0  0
   33.3716   40.2589   58.0691 H   0  0  0  0  0  0  0  0  0  0  0  0
  1  2  2  0  0  0  0
  2 11  1  0  0  0  0
  2  3  1  0  0  0  0
  3  4  1  0  0  0  0
  3  5  1  0  0  0  0
  5 23  1  0  0  0  0
  5  6  2  0  0  0  0
  6  7  1  0  0  0  0
  6 12  1  0  0  0  0
  7 11  1  0  0  0  0
  7  8  1  0  0  0  0
  8  9  2  0  0  0  0
  8 24  1  0  0  0  0
  9 10  1  0  0  0  0
  9 25  1  0  0  0  0
 10 11  2  0  0  0  0
 12 13  1  0  0  0  0
 12 26  1  0  0  0  0
 12 27  1  0  0  0  0
 13 23  2  0  0  0  0
 13 14  1  0  0  0  0
 14 15  2  0  0  0  0
 14 28  1  0  0  0  0
 15 16  1  0  0  0  0
 15 21  1  0  0  0  0
 16 20  1  0  0  0  0
 16 17  1  0  0  0  0
 17 18  2  0  0  0  0
 17 29  1  0  0  0  0
 18 19  1  0  0  0  0
 18 30  1  0  0  0  0
 19 20  2  0  0  0  0
 20 31  1  0  0  0  0
 21 22  2  0  0  0  0
 21 32  1  0  0  0  0
 22 23  1  0  0  0  0
 22 33  1  0  0  0  0
M  END
$$$$
