ZINC000000050125      none
 OpenBabel11202420153D

 41 43  0  0  1  0  0  0  0  0999 V2000
   30.6040   35.5480   62.2954 C   0  0  0  0  0  0  0  0  0  0  0  0
   31.5624   36.7254   62.1055 C   0  0  0  0  0  0  0  0  0  0  0  0
   32.0622   36.7532   60.6597 C   0  0  0  0  0  0  0  0  0  0  0  0
   32.7506   36.5815   63.0624 C   0  0  0  0  0  0  0  0  0  0  0  0
   32.2462   36.6468   64.4786 C   0  0  0  0  0  0  0  0  0  0  0  0
   32.8579   36.0722   65.3571 O   0  0  0  0  0  0  0  0  0  0  0  0
   31.0792   37.3617   64.8033 C   0  0  0  0  0  0  0  0  0  0  0  0
   30.3785   38.0239   63.8626 C   0  0  0  0  0  0  0  0  0  0  0  0
   30.8376   38.0347   62.4240 C   0  0  0  0  0  0  0  0  0  0  0  0
   29.2560   38.6954   64.1777 O   0  0  0  0  0  0  0  0  0  0  0  0
   29.0453   39.0832   65.4503 C   0  0  0  0  0  0  0  0  0  0  0  0
   28.1612   40.1256   65.7009 N   0  0  0  0  0  0  0  0  0  0  0  0
   29.6557   38.4997   66.4681 C   0  0  0  0  0  0  0  0  0  0  0  0
   29.3840   38.9642   67.8475 N   0  0  0  0  0  0  0  0  0  0  0  0
   29.0879   40.1279   68.0510 O   0  0  0  0  0  0  0  0  0  0  0  0
   29.4565   38.1824   68.7787 O   0  0  0  0  0  0  0  0  0  0  0  0
   30.6216   37.3707   66.2419 C   0  0  1  0  0  0  0  0  0  0  0  0
   31.4858   37.4980   66.8937 H   0  0  0  0  0  0  0  0  0  0  0  0
   29.9444   36.0623   66.5592 C   0  0  0  0  0  0  0  0  0  0  0  0
   28.5818   35.9259   66.3711 C   0  0  0  0  0  0  0  0  0  0  0  0
   27.9616   34.7239   66.6567 C   0  0  0  0  0  0  0  0  0  0  0  0
   28.7031   33.6602   67.1360 C   0  0  0  0  0  0  0  0  0  0  0  0
   30.0648   33.7984   67.3291 C   0  0  0  0  0  0  0  0  0  0  0  0
   30.6853   34.9999   67.0421 C   0  0  0  0  0  0  0  0  0  0  0  0
   29.7514   35.6620   61.6259 H   0  0  0  0  0  0  0  0  0  0  0  0
   31.1228   34.6168   62.0679 H   0  0  0  0  0  0  0  0  0  0  0  0
   30.2549   35.5266   63.3278 H   0  0  0  0  0  0  0  0  0  0  0  0
   32.7499   37.5887   60.5290 H   0  0  0  0  0  0  0  0  0  0  0  0
   32.5779   35.8195   60.4355 H   0  0  0  0  0  0  0  0  0  0  0  0
   31.2146   36.8713   59.9845 H   0  0  0  0  0  0  0  0  0  0  0  0
   33.2414   35.6231   62.8935 H   0  0  0  0  0  0  0  0  0  0  0  0
   33.4598   37.3907   62.8880 H   0  0  0  0  0  0  0  0  0  0  0  0
   29.9734   38.1398   61.7682 H   0  0  0  0  0  0  0  0  0  0  0  0
   31.5169   38.8725   62.2663 H   0  0  0  0  0  0  0  0  0  0  0  0
   28.3252   40.7339   66.4384 H   0  0  0  0  0  0  0  0  0  0  0  0
   27.3801   40.2448   65.1383 H   0  0  0  0  0  0  0  0  0  0  0  0
   28.0024   36.7568   65.9968 H   0  0  0  0  0  0  0  0  0  0  0  0
   26.8976   34.6161   66.5059 H   0  0  0  0  0  0  0  0  0  0  0  0
   28.2183   32.7214   67.3598 H   0  0  0  0  0  0  0  0  0  0  0  0
   30.6442   32.9675   67.7038 H   0  0  0  0  0  0  0  0  0  0  0  0
   31.7494   35.1076   67.1925 H   0  0  0  0  0  0  0  0  0  0  0  0
  1  2  1  0  0  0  0
  1 25  1  0  0  0  0
  1 26  1  0  0  0  0
  1 27  1  0  0  0  0
  2  9  1  0  0  0  0
  2  3  1  0  0  0  0
  2  4  1  0  0  0  0
  3 28  1  0  0  0  0
  3 29  1  0  0  0  0
  3 30  1  0  0  0  0
  4  5  1  0  0  0  0
  4 31  1  0  0  0  0
  4 32  1  0  0  0  0
  5  6  2  0  0  0  0
  5  7  1  0  0  0  0
  7 17  1  0  0  0  0
  7  8  2  0  0  0  0
  8  9  1  0  0  0  0
  8 10  1  0  0  0  0
  9 33  1  0  0  0  0
  9 34  1  0  0  0  0
 10 11  1  0  0  0  0
 11 12  1  0  0  0  0
 11 13  2  0  0  0  0
 12 35  1  0  0  0  0
 12 36  1  0  0  0  0
 13 14  1  0  0  0  0
 13 17  1  0  0  0  0
 14 15  2  0  0  0  0
 14 16  2  0  0  0  0
 17 18  1  1  0  0  0
 17 19  1  0  0  0  0
 19 24  2  0  0  0  0
 19 20  1  0  0  0  0
 20 21  2  0  0  0  0
 20 37  1  0  0  0  0
 21 22  1  0  0  0  0
 21 38  1  0  0  0  0
 22 23  2  0  0  0  0
 22 39  1  0  0  0  0
 23 24  1  0  0  0  0
 23 40  1  0  0  0  0
 24 41  1  0  0  0  0
M  END
$$$$
