ZINC000000050579      none
 OpenBabel11202420153D

 34 35  0  0  0  0  0  0  0  0999 V2000
   30.3365   37.5281   63.9131 C   0  0  0  0  0  0  0  0  0  0  0  0
   29.4810   36.6822   62.9677 C   0  0  0  0  0  0  0  0  0  0  0  0
   30.3775   35.8416   62.0955 C   0  0  0  0  0  0  0  0  0  0  0  0
   30.7561   34.5770   62.5126 C   0  0  0  0  0  0  0  0  0  0  0  0
   31.5785   33.7972   61.7210 C   0  0  0  0  0  0  0  0  0  0  0  0
   32.0299   34.2781   60.5032 C   0  0  0  0  0  0  0  0  0  0  0  0
   32.8388   33.5128   59.7251 O   0  0  0  0  0  0  0  0  0  0  0  0
   31.6491   35.5576   60.0772 C   0  0  0  0  0  0  0  0  0  0  0  0
   32.0895   36.0419   58.8761 N   0  0  0  0  0  0  0  0  0  0  0  0
   32.8007   37.1323   58.8347 C   0  0  0  0  0  0  0  0  0  0  0  0
   33.2749   37.6537   57.5415 C   0  0  0  0  0  0  0  0  0  0  0  0
   33.4611   39.0277   57.3637 C   0  0  0  0  0  0  0  0  0  0  0  0
   33.9058   39.5083   56.1499 C   0  0  0  0  0  0  0  0  0  0  0  0
   34.1679   38.6341   55.1096 C   0  0  0  0  0  0  0  0  0  0  0  0
   34.6449   39.1580   53.8101 N   0  0  0  0  0  0  0  0  0  0  0  0
   34.8058   40.3557   53.6583 O   0  0  0  0  0  0  0  0  0  0  0  0
   34.8763   38.3913   52.8923 O   0  0  0  0  0  0  0  0  0  0  0  0
   33.9859   37.2725   55.2780 C   0  0  0  0  0  0  0  0  0  0  0  0
   33.5408   36.7770   56.4856 C   0  0  0  0  0  0  0  0  0  0  0  0
   30.8224   36.3379   60.8879 C   0  0  0  0  0  0  0  0  0  0  0  0
   29.6880   38.1361   64.5438 H   0  0  0  0  0  0  0  0  0  0  0  0
   30.9421   36.8730   64.5392 H   0  0  0  0  0  0  0  0  0  0  0  0
   30.9887   38.1778   63.3295 H   0  0  0  0  0  0  0  0  0  0  0  0
   28.8754   37.3373   62.3416 H   0  0  0  0  0  0  0  0  0  0  0  0
   28.8288   36.0325   63.5514 H   0  0  0  0  0  0  0  0  0  0  0  0
   30.4074   34.1977   63.4617 H   0  0  0  0  0  0  0  0  0  0  0  0
   31.8699   32.8116   62.0529 H   0  0  0  0  0  0  0  0  0  0  0  0
   33.1005   33.9350   58.8954 H   0  0  0  0  0  0  0  0  0  0  0  0
   33.0428   37.6542   59.7487 H   0  0  0  0  0  0  0  0  0  0  0  0
   33.2616   39.7107   58.1762 H   0  0  0  0  0  0  0  0  0  0  0  0
   34.0502   40.5695   56.0111 H   0  0  0  0  0  0  0  0  0  0  0  0
   34.1925   36.5964   54.4617 H   0  0  0  0  0  0  0  0  0  0  0  0
   33.3992   35.7142   56.6156 H   0  0  0  0  0  0  0  0  0  0  0  0
   30.5287   37.3267   60.5684 H   0  0  0  0  0  0  0  0  0  0  0  0
  1  2  1  0  0  0  0
  1 21  1  0  0  0  0
  1 22  1  0  0  0  0
  1 23  1  0  0  0  0
  2  3  1  0  0  0  0
  2 24  1  0  0  0  0
  2 25  1  0  0  0  0
  3 20  2  0  0  0  0
  3  4  1  0  0  0  0
  4  5  2  0  0  0  0
  4 26  1  0  0  0  0
  5  6  1  0  0  0  0
  5 27  1  0  0  0  0
  6  7  1  0  0  0  0
  6  8  2  0  0  0  0
  7 28  1  0  0  0  0
  8  9  1  0  0  0  0
  8 20  1  0  0  0  0
  9 10  2  0  0  0  0
 10 11  1  0  0  0  0
 10 29  1  0  0  0  0
 11 19  2  0  0  0  0
 11 12  1  0  0  0  0
 12 13  2  0  0  0  0
 12 30  1  0  0  0  0
 13 14  1  0  0  0  0
 13 31  1  0  0  0  0
 14 15  1  0  0  0  0
 14 18  2  0  0  0  0
 15 16  2  0  0  0  0
 15 17  2  0  0  0  0
 18 19  1  0  0  0  0
 18 32  1  0  0  0  0
 19 33  1  0  0  0  0
 20 34  1  0  0  0  0
M  END
$$$$
