ZINC000000052733      none
 OpenBabel11202420153D

 24 26  0  0  0  0  0  0  0  0999 V2000
   32.2331   35.7557   57.6727 O   0  0  0  0  0  0  0  0  0  0  0  0
   33.0055   35.9255   56.7490 C   0  0  0  0  0  0  0  0  0  0  0  0
   33.5225   34.7737   56.0049 C   0  0  0  0  0  0  0  0  0  0  0  0
   34.4498   33.4628   56.7125 S   0  0  0  0  0  0  0  0  0  0  0  0
   34.5871   32.6520   55.1566 C   0  0  0  0  0  0  0  0  0  0  0  0
   35.2175   31.4525   54.8088 C   0  0  0  0  0  0  0  0  0  0  0  0
   35.1931   31.0111   53.5077 C   0  0  0  0  0  0  0  0  0  0  0  0
   34.5418   31.7536   52.5300 C   0  0  0  0  0  0  0  0  0  0  0  0
   33.9219   32.9218   52.8440 C   0  0  0  0  0  0  0  0  0  0  0  0
   33.9294   33.4040   54.1751 C   0  0  0  0  0  0  0  0  0  0  0  0
   33.3473   34.5735   54.6913 C   0  0  0  0  0  0  0  0  0  0  0  0
   32.4639   35.6868   53.6943 Cl  0  0  0  0  0  0  0  0  0  0  0  0
   33.3863   37.1730   56.4095 N   0  0  0  0  0  0  0  0  0  0  0  0
   32.9855   38.3263   57.0121 C   0  0  0  0  0  0  0  0  0  0  0  0
   33.5924   39.3518   56.3750 C   0  0  0  0  0  0  0  0  0  0  0  0
   34.3881   38.8161   55.3531 C   0  0  0  0  0  0  0  0  0  0  0  0
   34.2651   37.5150   55.3734 N   0  0  0  0  0  0  0  0  0  0  0  0
   35.7250   30.8720   55.5649 H   0  0  0  0  0  0  0  0  0  0  0  0
   35.6817   30.0849   53.2441 H   0  0  0  0  0  0  0  0  0  0  0  0
   34.5282   31.3988   51.5102 H   0  0  0  0  0  0  0  0  0  0  0  0
   33.4202   33.4866   52.0722 H   0  0  0  0  0  0  0  0  0  0  0  0
   32.3059   38.4069   57.8474 H   0  0  0  0  0  0  0  0  0  0  0  0
   33.4868   40.3997   56.6143 H   0  0  0  0  0  0  0  0  0  0  0  0
   34.9992   39.3822   54.6659 H   0  0  0  0  0  0  0  0  0  0  0  0
  1  2  2  0  0  0  0
  2  3  1  0  0  0  0
  2 13  1  0  0  0  0
  3 11  2  0  0  0  0
  3  4  1  0  0  0  0
  4  5  1  0  0  0  0
  5 10  2  0  0  0  0
  5  6  1  0  0  0  0
  6  7  2  0  0  0  0
  6 18  1  0  0  0  0
  7  8  1  0  0  0  0
  7 19  1  0  0  0  0
  8  9  2  0  0  0  0
  8 20  1  0  0  0  0
  9 10  1  0  0  0  0
  9 21  1  0  0  0  0
 10 11  1  0  0  0  0
 11 12  1  0  0  0  0
 13 17  1  0  0  0  0
 13 14  1  0  0  0  0
 14 15  2  0  0  0  0
 14 22  1  0  0  0  0
 15 16  1  0  0  0  0
 15 23  1  0  0  0  0
 16 17  2  0  0  0  0
 16 24  1  0  0  0  0
M  END
$$$$
