ZINC000000038069      none
 OpenBabel11202420153D

 42 45  0  0  0  0  0  0  0  0999 V2000
   31.5190   34.2668   59.8421 C   0  0  0  0  0  0  0  0  0  0  0  0
   31.9920   35.3416   58.8977 C   0  0  0  0  0  0  0  0  0  0  0  0
   32.6163   35.0119   57.7896 N   0  0  0  0  0  0  0  0  0  0  0  0
   33.0484   35.9417   56.9302 C   0  0  0  0  0  0  0  0  0  0  0  0
   33.7249   35.8517   55.7074 C   0  0  0  0  0  0  0  0  0  0  0  0
   34.1531   34.6062   55.0295 C   0  0  0  0  0  0  0  0  0  0  0  0
   33.6696   34.2997   53.7576 C   0  0  0  0  0  0  0  0  0  0  0  0
   34.0760   33.1409   53.1286 C   0  0  0  0  0  0  0  0  0  0  0  0
   34.9533   32.2774   53.7624 C   0  0  0  0  0  0  0  0  0  0  0  0
   35.4543   30.8172   52.9684 Cl  0  0  0  0  0  0  0  0  0  0  0  0
   35.4323   32.5739   55.0272 C   0  0  0  0  0  0  0  0  0  0  0  0
   35.0368   33.7327   55.6632 C   0  0  0  0  0  0  0  0  0  0  0  0
   33.9214   37.1589   55.2450 C   0  0  0  0  0  0  0  0  0  0  0  0
   34.6110   37.5404   53.9605 C   0  0  0  0  0  0  0  0  0  0  0  0
   33.4077   37.9958   56.1122 N   0  0  0  0  0  0  0  0  0  0  0  0
   32.8544   37.2753   57.1761 N   0  0  0  0  0  0  0  0  0  0  0  0
   32.2038   37.6692   58.3146 C   0  0  0  0  0  0  0  0  0  0  0  0
   31.9943   39.0028   58.5764 N   0  0  0  0  0  0  0  0  0  0  0  0
   31.7638   36.6941   59.2043 C   0  0  0  0  0  0  0  0  0  0  0  0
   31.0602   37.0752   60.4524 C   0  0  0  0  0  0  0  0  0  0  0  0
   31.6996   37.8727   61.4005 C   0  0  0  0  0  0  0  0  0  0  0  0
   31.0381   38.2279   62.5584 C   0  0  0  0  0  0  0  0  0  0  0  0
   29.7467   37.7861   62.7836 C   0  0  0  0  0  0  0  0  0  0  0  0
   29.1090   36.9903   61.8489 C   0  0  0  0  0  0  0  0  0  0  0  0
   29.7588   36.6328   60.6851 C   0  0  0  0  0  0  0  0  0  0  0  0
   30.5055   33.9681   59.5744 H   0  0  0  0  0  0  0  0  0  0  0  0
   32.1821   33.4045   59.7726 H   0  0  0  0  0  0  0  0  0  0  0  0
   31.5272   34.6501   60.8624 H   0  0  0  0  0  0  0  0  0  0  0  0
   32.9815   34.9703   53.2642 H   0  0  0  0  0  0  0  0  0  0  0  0
   33.7056   32.9047   52.1421 H   0  0  0  0  0  0  0  0  0  0  0  0
   36.1165   31.8969   55.5167 H   0  0  0  0  0  0  0  0  0  0  0  0
   35.4111   33.9631   56.6497 H   0  0  0  0  0  0  0  0  0  0  0  0
   35.6769   37.6725   54.1458 H   0  0  0  0  0  0  0  0  0  0  0  0
   34.4655   36.7520   53.2221 H   0  0  0  0  0  0  0  0  0  0  0  0
   34.1892   38.4726   53.5847 H   0  0  0  0  0  0  0  0  0  0  0  0
   31.5358   39.2715   59.3879 H   0  0  0  0  0  0  0  0  0  0  0  0
   32.3051   39.6748   57.9497 H   0  0  0  0  0  0  0  0  0  0  0  0
   32.7091   38.2149   61.2274 H   0  0  0  0  0  0  0  0  0  0  0  0
   31.5311   38.8486   63.2919 H   0  0  0  0  0  0  0  0  0  0  0  0
   29.2342   38.0635   63.6930 H   0  0  0  0  0  0  0  0  0  0  0  0
   28.1007   36.6485   62.0300 H   0  0  0  0  0  0  0  0  0  0  0  0
   29.2599   36.0117   59.9558 H   0  0  0  0  0  0  0  0  0  0  0  0
  1  2  1  0  0  0  0
  1 26  1  0  0  0  0
  1 27  1  0  0  0  0
  1 28  1  0  0  0  0
  2 19  1  0  0  0  0
  2  3  2  0  0  0  0
  3  4  1  0  0  0  0
  4 16  1  0  0  0  0
  4  5  2  0  0  0  0
  5  6  1  0  0  0  0
  5 13  1  0  0  0  0
  6 12  2  0  0  0  0
  6  7  1  0  0  0  0
  7  8  2  0  0  0  0
  7 29  1  0  0  0  0
  8  9  1  0  0  0  0
  8 30  1  0  0  0  0
  9 10  1  0  0  0  0
  9 11  2  0  0  0  0
 11 12  1  0  0  0  0
 11 31  1  0  0  0  0
 12 32  1  0  0  0  0
 13 14  1  0  0  0  0
 13 15  2  0  0  0  0
 14 33  1  0  0  0  0
 14 34  1  0  0  0  0
 14 35  1  0  0  0  0
 15 16  1  0  0  0  0
 16 17  1  0  0  0  0
 17 18  1  0  0  0  0
 17 19  2  0  0  0  0
 18 36  1  0  0  0  0
 18 37  1  0  0  0  0
 19 20  1  0  0  0  0
 20 25  2  0  0  0  0
 20 21  1  0  0  0  0
 21 22  2  0  0  0  0
 21 38  1  0  0  0  0
 22 23  1  0  0  0  0
 22 39  1  0  0  0  0
 23 24  2  0  0  0  0
 23 40  1  0  0  0  0
 24 25  1  0  0  0  0
 24 41  1  0  0  0  0
 25 42  1  0  0  0  0
M  END
$$$$
