ZINC000000034367      none
 OpenBabel11202420153D

 31 32  0  0  0  0  0  0  0  0999 V2000
   31.3120   35.0789   62.7790 C   0  0  0  0  0  0  0  0  0  0  0  0
   32.2198   36.3102   62.7933 C   0  0  0  0  0  0  0  0  0  0  0  0
   31.3979   37.5225   62.8263 N   0  0  0  0  0  0  0  0  0  0  0  0
   30.9473   38.1848   63.9348 C   0  0  0  0  0  0  0  0  0  0  0  0
   31.2041   37.8021   65.3697 C   0  0  0  0  0  0  0  0  0  0  0  0
   30.2551   39.2081   63.5206 N   0  0  0  0  0  0  0  0  0  0  0  0
   30.2374   39.2379   62.2358 N   0  0  0  0  0  0  0  0  0  0  0  0
   30.9234   38.2263   61.7567 C   0  0  0  0  0  0  0  0  0  0  0  0
   31.1831   37.8485   60.0556 S   0  0  0  0  0  0  0  0  0  0  0  0
   32.7051   38.7811   59.7553 C   0  0  0  0  0  0  0  0  0  0  0  0
   33.1296   38.6015   58.3206 C   0  0  0  0  0  0  0  0  0  0  0  0
   33.5314   39.6952   57.5766 C   0  0  0  0  0  0  0  0  0  0  0  0
   33.9253   39.5298   56.2619 C   0  0  0  0  0  0  0  0  0  0  0  0
   33.9074   38.2724   55.6881 C   0  0  0  0  0  0  0  0  0  0  0  0
   33.5007   37.1794   56.4304 C   0  0  0  0  0  0  0  0  0  0  0  0
   33.1118   37.3440   57.7466 C   0  0  0  0  0  0  0  0  0  0  0  0
   30.6926   35.0736   63.6760 H   0  0  0  0  0  0  0  0  0  0  0  0
   30.6731   35.1087   61.8965 H   0  0  0  0  0  0  0  0  0  0  0  0
   31.9235   34.1769   62.7547 H   0  0  0  0  0  0  0  0  0  0  0  0
   32.8392   36.3155   61.8965 H   0  0  0  0  0  0  0  0  0  0  0  0
   32.8588   36.2805   63.6760 H   0  0  0  0  0  0  0  0  0  0  0  0
   30.4153   37.1335   65.7140 H   0  0  0  0  0  0  0  0  0  0  0  0
   32.1670   37.2968   65.4441 H   0  0  0  0  0  0  0  0  0  0  0  0
   31.2158   38.6994   65.9884 H   0  0  0  0  0  0  0  0  0  0  0  0
   32.5281   39.8385   59.9521 H   0  0  0  0  0  0  0  0  0  0  0  0
   33.4915   38.4153   60.4155 H   0  0  0  0  0  0  0  0  0  0  0  0
   33.5411   40.6783   58.0237 H   0  0  0  0  0  0  0  0  0  0  0  0
   34.2428   40.3837   55.6818 H   0  0  0  0  0  0  0  0  0  0  0  0
   34.2110   38.1438   54.6595 H   0  0  0  0  0  0  0  0  0  0  0  0
   33.4864   36.1971   55.9819 H   0  0  0  0  0  0  0  0  0  0  0  0
   32.7936   36.4903   58.3265 H   0  0  0  0  0  0  0  0  0  0  0  0
  1  2  1  0  0  0  0
  1 17  1  0  0  0  0
  1 18  1  0  0  0  0
  1 19  1  0  0  0  0
  2  3  1  0  0  0  0
  2 20  1  0  0  0  0
  2 21  1  0  0  0  0
  3  8  1  0  0  0  0
  3  4  1  0  0  0  0
  4  5  1  0  0  0  0
  4  6  2  0  0  0  0
  5 22  1  0  0  0  0
  5 23  1  0  0  0  0
  5 24  1  0  0  0  0
  6  7  1  0  0  0  0
  7  8  2  0  0  0  0
  8  9  1  0  0  0  0
  9 10  1  0  0  0  0
 10 11  1  0  0  0  0
 10 25  1  0  0  0  0
 10 26  1  0  0  0  0
 11 16  2  0  0  0  0
 11 12  1  0  0  0  0
 12 13  2  0  0  0  0
 12 27  1  0  0  0  0
 13 14  1  0  0  0  0
 13 28  1  0  0  0  0
 14 15  2  0  0  0  0
 14 29  1  0  0  0  0
 15 16  1  0  0  0  0
 15 30  1  0  0  0  0
 16 31  1  0  0  0  0
M  END
$$$$
