ZINC000000003650      none
 OpenBabel11202420153D

 26 27  0  0  0  0  0  0  0  0999 V2000
   33.5047   40.7846   58.9111 N   0  0  0  0  0  0  0  0  0  0  0  0
   33.4740   39.7018   58.1093 C   0  0  0  0  0  0  0  0  0  0  0  0
   33.8158   39.7967   56.9459 O   0  0  0  0  0  0  0  0  0  0  0  0
   33.0262   38.4033   58.6419 C   0  0  0  0  0  0  0  0  0  0  0  0
   32.6170   38.1534   59.9191 C   0  0  0  0  0  0  0  0  0  0  0  0
   32.2957   36.8397   59.9788 N   0  0  0  0  0  0  0  0  0  0  0  0
   31.8049   36.1230   61.1586 C   0  0  0  0  0  0  0  0  0  0  0  0
   30.7408   36.9451   61.8390 C   0  0  0  0  0  0  0  0  0  0  0  0
   31.0902   37.8494   62.8270 C   0  0  0  0  0  0  0  0  0  0  0  0
   32.3854   37.9956   63.1818 F   0  0  0  0  0  0  0  0  0  0  0  0
   30.1119   38.6072   63.4485 C   0  0  0  0  0  0  0  0  0  0  0  0
   28.7860   38.4539   63.0896 C   0  0  0  0  0  0  0  0  0  0  0  0
   28.4356   37.5478   62.1065 C   0  0  0  0  0  0  0  0  0  0  0  0
   29.4126   36.7923   61.4803 C   0  0  0  0  0  0  0  0  0  0  0  0
   29.0695   35.9061   60.5201 F   0  0  0  0  0  0  0  0  0  0  0  0
   32.5156   36.3037   58.7500 C   0  0  0  0  0  0  0  0  0  0  0  0
   32.9456   37.2373   57.9513 N   0  0  0  0  0  0  0  0  0  0  0  0
   33.2321   40.7090   59.8389 H   0  0  0  0  0  0  0  0  0  0  0  0
   33.7995   41.6396   58.5603 H   0  0  0  0  0  0  0  0  0  0  0  0
   32.5601   38.8671   60.7278 H   0  0  0  0  0  0  0  0  0  0  0  0
   32.6303   35.9534   61.8500 H   0  0  0  0  0  0  0  0  0  0  0  0
   31.3841   35.1652   60.8528 H   0  0  0  0  0  0  0  0  0  0  0  0
   30.3846   39.3156   64.2169 H   0  0  0  0  0  0  0  0  0  0  0  0
   28.0235   39.0427   63.5774 H   0  0  0  0  0  0  0  0  0  0  0  0
   27.3992   37.4287   61.8269 H   0  0  0  0  0  0  0  0  0  0  0  0
   32.3566   35.2705   58.4789 H   0  0  0  0  0  0  0  0  0  0  0  0
  1  2  1  0  0  0  0
  1 18  1  0  0  0  0
  1 19  1  0  0  0  0
  2  3  2  0  0  0  0
  2  4  1  0  0  0  0
  4 17  1  0  0  0  0
  4  5  2  0  0  0  0
  5  6  1  0  0  0  0
  5 20  1  0  0  0  0
  6  7  1  0  0  0  0
  6 16  1  0  0  0  0
  7  8  1  0  0  0  0
  7 21  1  0  0  0  0
  7 22  1  0  0  0  0
  8 14  2  0  0  0  0
  8  9  1  0  0  0  0
  9 10  1  0  0  0  0
  9 11  2  0  0  0  0
 11 12  1  0  0  0  0
 11 23  1  0  0  0  0
 12 13  2  0  0  0  0
 12 24  1  0  0  0  0
 13 14  1  0  0  0  0
 13 25  1  0  0  0  0
 14 15  1  0  0  0  0
 16 17  2  0  0  0  0
 16 26  1  0  0  0  0
M  END
$$$$
