ZINC000000004127      none
 OpenBabel11202420153D

 30 32  0  0  0  0  0  0  0  0999 V2000
   32.0353   38.0287   60.7871 C   0  0  0  0  0  0  0  0  0  0  0  0
   32.4747   39.0149   59.7969 N   0  0  0  0  0  0  0  0  0  0  0  0
   32.8457   38.6046   58.5307 C   0  0  0  0  0  0  0  0  0  0  0  0
   33.2463   39.4855   57.6215 N   0  0  0  0  0  0  0  0  0  0  0  0
   33.6028   39.1045   56.4081 C   0  0  0  0  0  0  0  0  0  0  0  0
   33.5835   37.8448   56.0293 N   0  0  0  0  0  0  0  0  0  0  0  0
   33.1970   36.8894   56.8703 C   0  0  0  0  0  0  0  0  0  0  0  0
   32.8072   37.2412   58.1744 C   0  0  0  0  0  0  0  0  0  0  0  0
   32.4647   36.1137   58.8204 N   0  0  0  0  0  0  0  0  0  0  0  0
   32.6048   35.0974   58.0423 N   0  0  0  0  0  0  0  0  0  0  0  0
   33.0673   35.5307   56.7904 N   0  0  0  0  0  0  0  0  0  0  0  0
   33.3503   34.6915   55.6234 C   0  0  0  0  0  0  0  0  0  0  0  0
   33.8197   35.5581   54.4834 C   0  0  0  0  0  0  0  0  0  0  0  0
   35.1661   35.8308   54.3311 C   0  0  0  0  0  0  0  0  0  0  0  0
   35.5976   36.6208   53.2823 C   0  0  0  0  0  0  0  0  0  0  0  0
   34.6810   37.1490   52.3907 C   0  0  0  0  0  0  0  0  0  0  0  0
   33.3348   36.8822   52.5443 C   0  0  0  0  0  0  0  0  0  0  0  0
   32.9019   36.0861   53.5914 C   0  0  0  0  0  0  0  0  0  0  0  0
   31.5851   35.8245   53.7422 F   0  0  0  0  0  0  0  0  0  0  0  0
   32.8368   37.3122   60.9667 H   0  0  0  0  0  0  0  0  0  0  0  0
   31.7856   38.5358   61.7190 H   0  0  0  0  0  0  0  0  0  0  0  0
   31.1565   37.5042   60.4122 H   0  0  0  0  0  0  0  0  0  0  0  0
   32.5051   39.9560   60.0301 H   0  0  0  0  0  0  0  0  0  0  0  0
   33.9224   39.8552   55.7004 H   0  0  0  0  0  0  0  0  0  0  0  0
   34.1272   33.9696   55.8749 H   0  0  0  0  0  0  0  0  0  0  0  0
   32.4442   34.1623   55.3283 H   0  0  0  0  0  0  0  0  0  0  0  0
   35.8819   35.4226   55.0295 H   0  0  0  0  0  0  0  0  0  0  0  0
   36.6502   36.8299   53.1617 H   0  0  0  0  0  0  0  0  0  0  0  0
   35.0197   37.7692   51.5740 H   0  0  0  0  0  0  0  0  0  0  0  0
   32.6198   37.2948   51.8481 H   0  0  0  0  0  0  0  0  0  0  0  0
  1  2  1  0  0  0  0
  1 20  1  0  0  0  0
  1 21  1  0  0  0  0
  1 22  1  0  0  0  0
  2  3  1  0  0  0  0
  2 23  1  0  0  0  0
  3  8  2  0  0  0  0
  3  4  1  0  0  0  0
  4  5  2  0  0  0  0
  5  6  1  0  0  0  0
  5 24  1  0  0  0  0
  6  7  2  0  0  0  0
  7 11  1  0  0  0  0
  7  8  1  0  0  0  0
  8  9  1  0  0  0  0
  9 10  2  0  0  0  0
 10 11  1  0  0  0  0
 11 12  1  0  0  0  0
 12 13  1  0  0  0  0
 12 25  1  0  0  0  0
 12 26  1  0  0  0  0
 13 18  2  0  0  0  0
 13 14  1  0  0  0  0
 14 15  2  0  0  0  0
 14 27  1  0  0  0  0
 15 16  1  0  0  0  0
 15 28  1  0  0  0  0
 16 17  2  0  0  0  0
 16 29  1  0  0  0  0
 17 18  1  0  0  0  0
 17 30  1  0  0  0  0
 18 19  1  0  0  0  0
M  END
$$$$
