ZINC000000042673      none
 OpenBabel11202420153D

 35 36  0  0  0  0  0  0  0  0999 V2000
   34.0354   33.8271   54.3471 C   0  0  0  0  0  0  0  0  0  0  0  0
   32.7142   34.4563   54.7071 C   0  0  0  0  0  0  0  0  0  0  0  0
   31.9992   33.9320   55.5278 O   0  0  0  0  0  0  0  0  0  0  0  0
   32.3316   35.5997   54.1155 O   0  0  0  0  0  0  0  0  0  0  0  0
   33.3145   36.4513   53.7271 C   0  0  0  0  0  0  0  0  0  0  0  0
   33.8627   36.3492   52.4576 C   0  0  0  0  0  0  0  0  0  0  0  0
   34.8620   37.2136   52.0636 C   0  0  0  0  0  0  0  0  0  0  0  0
   35.3259   38.1923   52.9308 C   0  0  0  0  0  0  0  0  0  0  0  0
   34.7920   38.3078   54.1962 C   0  0  0  0  0  0  0  0  0  0  0  0
   33.7801   37.4372   54.6074 C   0  0  0  0  0  0  0  0  0  0  0  0
   33.2038   37.5557   55.9606 C   0  0  0  0  0  0  0  0  0  0  0  0
   32.6609   38.5887   56.3018 O   0  0  0  0  0  0  0  0  0  0  0  0
   33.2791   36.5188   56.8183 N   0  0  0  0  0  0  0  0  0  0  0  0
   32.7329   36.6312   58.1008 C   0  0  0  0  0  0  0  0  0  0  0  0
   32.2327   35.5070   58.7451 C   0  0  0  0  0  0  0  0  0  0  0  0
   31.6991   35.6205   60.0140 C   0  0  0  0  0  0  0  0  0  0  0  0
   31.6522   36.8535   60.6382 C   0  0  0  0  0  0  0  0  0  0  0  0
   31.0641   36.9745   62.0205 C   0  0  0  0  0  0  0  0  0  0  0  0
   32.1442   37.9757   59.9972 C   0  0  0  0  0  0  0  0  0  0  0  0
   32.6843   37.8681   58.7306 C   0  0  0  0  0  0  0  0  0  0  0  0
   34.8430   34.5234   54.5731 H   0  0  0  0  0  0  0  0  0  0  0  0
   34.1717   32.9128   54.9247 H   0  0  0  0  0  0  0  0  0  0  0  0
   34.0470   33.5900   53.2834 H   0  0  0  0  0  0  0  0  0  0  0  0
   33.5074   35.5906   51.7760 H   0  0  0  0  0  0  0  0  0  0  0  0
   35.2871   37.1323   51.0740 H   0  0  0  0  0  0  0  0  0  0  0  0
   36.1114   38.8629   52.6155 H   0  0  0  0  0  0  0  0  0  0  0  0
   35.1557   39.0704   54.8689 H   0  0  0  0  0  0  0  0  0  0  0  0
   33.7123   35.6947   56.5460 H   0  0  0  0  0  0  0  0  0  0  0  0
   32.2646   34.5446   58.2562 H   0  0  0  0  0  0  0  0  0  0  0  0
   31.3141   34.7460   60.5174 H   0  0  0  0  0  0  0  0  0  0  0  0
   29.9956   37.1761   61.9443 H   0  0  0  0  0  0  0  0  0  0  0  0
   31.2201   36.0430   62.5646 H   0  0  0  0  0  0  0  0  0  0  0  0
   31.5510   37.7919   62.5523 H   0  0  0  0  0  0  0  0  0  0  0  0
   32.1058   38.9372   60.4873 H   0  0  0  0  0  0  0  0  0  0  0  0
   33.0687   38.7449   58.2306 H   0  0  0  0  0  0  0  0  0  0  0  0
  1  2  1  0  0  0  0
  1 21  1  0  0  0  0
  1 22  1  0  0  0  0
  1 23  1  0  0  0  0
  2  3  2  0  0  0  0
  2  4  1  0  0  0  0
  4  5  1  0  0  0  0
  5 10  2  0  0  0  0
  5  6  1  0  0  0  0
  6  7  2  0  0  0  0
  6 24  1  0  0  0  0
  7  8  1  0  0  0  0
  7 25  1  0  0  0  0
  8  9  2  0  0  0  0
  8 26  1  0  0  0  0
  9 10  1  0  0  0  0
  9 27  1  0  0  0  0
 10 11  1  0  0  0  0
 11 12  2  0  0  0  0
 11 13  1  0  0  0  0
 13 14  1  0  0  0  0
 13 28  1  0  0  0  0
 14 20  2  0  0  0  0
 14 15  1  0  0  0  0
 15 16  2  0  0  0  0
 15 29  1  0  0  0  0
 16 17  1  0  0  0  0
 16 30  1  0  0  0  0
 17 18  1  0  0  0  0
 17 19  2  0  0  0  0
 18 31  1  0  0  0  0
 18 32  1  0  0  0  0
 18 33  1  0  0  0  0
 19 20  1  0  0  0  0
 19 34  1  0  0  0  0
 20 35  1  0  0  0  0
M  END
$$$$
