ZINC000000032307      none
 OpenBabel11202420153D

 31 33  0  0  0  0  0  0  0  0999 V2000
   29.3335   37.8083   61.7571 O   0  0  0  0  0  0  0  0  0  0  0  0
   30.2620   37.7349   62.7468 C   0  0  0  0  0  0  0  0  0  0  0  0
   29.9101   38.0404   64.0536 C   0  0  0  0  0  0  0  0  0  0  0  0
   30.8539   37.9597   65.0589 C   0  0  0  0  0  0  0  0  0  0  0  0
   32.1524   37.5855   64.7614 C   0  0  0  0  0  0  0  0  0  0  0  0
   33.4443   37.4829   66.1385 Br  0  0  0  0  0  0  0  0  0  0  0  0
   32.5068   37.2861   63.4583 C   0  0  0  0  0  0  0  0  0  0  0  0
   31.5642   37.3601   62.4508 C   0  0  0  0  0  0  0  0  0  0  0  0
   31.9510   37.0342   61.0311 C   0  0  0  0  0  0  0  0  0  0  0  0
   32.4088   38.2523   60.3580 N   0  0  0  0  0  0  0  0  0  0  0  0
   32.8234   38.1998   59.0226 C   0  0  0  0  0  0  0  0  0  0  0  0
   33.2520   39.3551   58.3826 C   0  0  0  0  0  0  0  0  0  0  0  0
   33.6660   39.3039   57.0651 C   0  0  0  0  0  0  0  0  0  0  0  0
   33.6454   38.1021   56.3762 C   0  0  0  0  0  0  0  0  0  0  0  0
   33.2111   36.9426   57.0136 C   0  0  0  0  0  0  0  0  0  0  0  0
   32.8009   36.9937   58.3357 C   0  0  0  0  0  0  0  0  0  0  0  0
   33.2848   35.9049   56.1298 O   0  0  0  0  0  0  0  0  0  0  0  0
   33.3794   36.5136   54.8285 C   0  0  0  0  0  0  0  0  0  0  0  0
   33.9914   37.7901   55.0917 O   0  0  0  0  0  0  0  0  0  0  0  0
   28.4557   38.0777   62.0605 H   0  0  0  0  0  0  0  0  0  0  0  0
   28.8976   38.3367   64.2855 H   0  0  0  0  0  0  0  0  0  0  0  0
   30.5793   38.1934   66.0768 H   0  0  0  0  0  0  0  0  0  0  0  0
   33.5207   36.9941   63.2284 H   0  0  0  0  0  0  0  0  0  0  0  0
   32.7536   36.2968   61.0334 H   0  0  0  0  0  0  0  0  0  0  0  0
   31.0874   36.6300   60.5030 H   0  0  0  0  0  0  0  0  0  0  0  0
   32.4245   39.0950   60.8380 H   0  0  0  0  0  0  0  0  0  0  0  0
   33.2652   40.2941   58.9160 H   0  0  0  0  0  0  0  0  0  0  0  0
   34.0028   40.2029   56.5705 H   0  0  0  0  0  0  0  0  0  0  0  0
   32.4635   36.0956   58.8317 H   0  0  0  0  0  0  0  0  0  0  0  0
   32.3883   36.6463   54.3946 H   0  0  0  0  0  0  0  0  0  0  0  0
   34.0096   35.9152   54.1705 H   0  0  0  0  0  0  0  0  0  0  0  0
  1  2  1  0  0  0  0
  1 20  1  0  0  0  0
  2  8  2  0  0  0  0
  2  3  1  0  0  0  0
  3  4  2  0  0  0  0
  3 21  1  0  0  0  0
  4  5  1  0  0  0  0
  4 22  1  0  0  0  0
  5  6  1  0  0  0  0
  5  7  2  0  0  0  0
  7  8  1  0  0  0  0
  7 23  1  0  0  0  0
  8  9  1  0  0  0  0
  9 10  1  0  0  0  0
  9 24  1  0  0  0  0
  9 25  1  0  0  0  0
 10 11  1  0  0  0  0
 10 26  1  0  0  0  0
 11 16  2  0  0  0  0
 11 12  1  0  0  0  0
 12 13  2  0  0  0  0
 12 27  1  0  0  0  0
 13 14  1  0  0  0  0
 13 28  1  0  0  0  0
 14 19  1  0  0  0  0
 14 15  2  0  0  0  0
 15 16  1  0  0  0  0
 15 17  1  0  0  0  0
 16 29  1  0  0  0  0
 17 18  1  0  0  0  0
 18 19  1  0  0  0  0
 18 30  1  0  0  0  0
 18 31  1  0  0  0  0
M  END
$$$$
