ZINC000000052548      none
 OpenBabel11202420153D

 33 35  0  0  0  0  0  0  0  0999 V2000
   32.0464   33.2375   58.8675 N   0  0  0  0  0  0  0  0  0  0  0  0
   32.1617   34.3636   58.7718 C   0  0  0  0  0  0  0  0  0  0  0  0
   32.3070   35.7831   58.6512 C   0  0  0  0  0  0  0  0  0  0  0  0
   32.0432   36.6520   59.6678 C   0  0  0  0  0  0  0  0  0  0  0  0
   31.6068   36.2779   60.9312 N   0  0  0  0  0  0  0  0  0  0  0  0
   31.3738   37.2172   61.8692 C   0  0  0  0  0  0  0  0  0  0  0  0
   31.5452   38.3895   61.6092 O   0  0  0  0  0  0  0  0  0  0  0  0
   30.8999   36.8111   63.2408 C   0  0  0  0  0  0  0  0  0  0  0  0
   31.8691   37.2579   64.2444 N   0  0  0  0  0  0  0  0  0  0  0  0
   31.8590   38.4462   64.8840 C   0  0  0  0  0  0  0  0  0  0  0  0
   32.9170   38.4696   65.7273 C   0  0  0  0  0  0  0  0  0  0  0  0
   33.2895   39.5849   66.6264 N   0  0  0  0  0  0  0  0  0  0  0  0
   32.6159   40.5996   66.6495 O   0  0  0  0  0  0  0  0  0  0  0  0
   34.2695   39.4882   67.3431 O   0  0  0  0  0  0  0  0  0  0  0  0
   33.5969   37.2542   65.5987 C   0  0  0  0  0  0  0  0  0  0  0  0
   32.9696   36.5270   64.7101 N   0  0  0  0  0  0  0  0  0  0  0  0
   32.3285   38.2564   59.1803 S   0  0  0  0  0  0  0  0  0  0  0  0
   32.8125   37.7657   57.5573 C   0  0  0  0  0  0  0  0  0  0  0  0
   32.7490   36.4430   57.4266 C   0  0  0  0  0  0  0  0  0  0  0  0
   33.1695   36.0315   56.0186 C   0  0  0  0  0  0  0  0  0  0  0  0
   33.9200   37.2546   55.4549 C   0  0  0  0  0  0  0  0  0  0  0  0
   33.2829   38.4070   56.2574 C   0  0  0  0  0  0  0  0  0  0  0  0
   31.4697   35.3404   61.1390 H   0  0  0  0  0  0  0  0  0  0  0  0
   30.8044   35.7262   63.2858 H   0  0  0  0  0  0  0  0  0  0  0  0
   29.9316   37.2696   63.4413 H   0  0  0  0  0  0  0  0  0  0  0  0
   31.1383   39.2383   64.7445 H   0  0  0  0  0  0  0  0  0  0  0  0
   34.4861   36.9656   66.1395 H   0  0  0  0  0  0  0  0  0  0  0  0
   33.8311   35.1661   56.0583 H   0  0  0  0  0  0  0  0  0  0  0  0
   32.2925   35.8096   55.4106 H   0  0  0  0  0  0  0  0  0  0  0  0
   34.9891   37.1834   55.6554 H   0  0  0  0  0  0  0  0  0  0  0  0
   33.7319   37.3706   54.3876 H   0  0  0  0  0  0  0  0  0  0  0  0
   32.4365   38.8255   55.7130 H   0  0  0  0  0  0  0  0  0  0  0  0
   34.0229   39.1807   56.4624 H   0  0  0  0  0  0  0  0  0  0  0  0
  1  2  3  0  0  0  0
  2  3  1  0  0  0  0
  3 19  1  0  0  0  0
  3  4  2  0  0  0  0
  4  5  1  0  0  0  0
  4 17  1  0  0  0  0
  5  6  1  0  0  0  0
  5 23  1  0  0  0  0
  6  7  2  0  0  0  0
  6  8  1  0  0  0  0
  8  9  1  0  0  0  0
  8 24  1  0  0  0  0
  8 25  1  0  0  0  0
  9 16  1  0  0  0  0
  9 10  1  0  0  0  0
 10 11  2  0  0  0  0
 10 26  1  0  0  0  0
 11 12  1  0  0  0  0
 11 15  1  0  0  0  0
 12 13  2  0  0  0  0
 12 14  2  0  0  0  0
 15 16  2  0  0  0  0
 15 27  1  0  0  0  0
 17 18  1  0  0  0  0
 18 22  1  0  0  0  0
 18 19  2  0  0  0  0
 19 20  1  0  0  0  0
 20 21  1  0  0  0  0
 20 28  1  0  0  0  0
 20 29  1  0  0  0  0
 21 22  1  0  0  0  0
 21 30  1  0  0  0  0
 21 31  1  0  0  0  0
 22 32  1  0  0  0  0
 22 33  1  0  0  0  0
M  END
$$$$
