ZINC000000008596      none
 OpenBabel11202420153D

 35 35  0  0  0  0  0  0  0  0999 V2000
   33.6593   33.1141   53.7690 C   0  0  0  0  0  0  0  0  0  0  0  0
   33.2672   33.5888   55.1445 C   0  0  0  0  0  0  0  0  0  0  0  0
   32.8785   32.7927   55.9727 O   0  0  0  0  0  0  0  0  0  0  0  0
   33.3482   34.8980   55.4541 N   0  0  0  0  0  0  0  0  0  0  0  0
   32.9854   35.3371   56.7268 C   0  0  0  0  0  0  0  0  0  0  0  0
   33.0700   36.6889   57.0452 C   0  0  0  0  0  0  0  0  0  0  0  0
   32.7185   37.1249   58.3027 C   0  0  0  0  0  0  0  0  0  0  0  0
   32.2652   36.2096   59.2566 C   0  0  0  0  0  0  0  0  0  0  0  0
   31.8817   36.6743   60.6040 C   0  0  0  0  0  0  0  0  0  0  0  0
   32.3795   37.6839   61.0633 O   0  0  0  0  0  0  0  0  0  0  0  0
   30.9797   35.9794   61.3251 N   0  0  0  0  0  0  0  0  0  0  0  0
   30.5990   36.4406   62.6624 C   0  0  0  0  0  0  0  0  0  0  0  0
   29.9936   37.8425   62.5653 C   0  0  0  0  0  0  0  0  0  0  0  0
   29.5680   35.4802   63.2589 C   0  0  0  0  0  0  0  0  0  0  0  0
   31.8376   36.4809   63.5597 C   0  0  0  0  0  0  0  0  0  0  0  0
   32.1814   34.8525   58.9336 C   0  0  0  0  0  0  0  0  0  0  0  0
   32.5399   34.4224   57.6759 C   0  0  0  0  0  0  0  0  0  0  0  0
   33.9797   33.9655   53.1685 H   0  0  0  0  0  0  0  0  0  0  0  0
   34.4778   32.3989   53.8511 H   0  0  0  0  0  0  0  0  0  0  0  0
   32.8042   32.6346   53.2926 H   0  0  0  0  0  0  0  0  0  0  0  0
   33.6590   35.5347   54.7917 H   0  0  0  0  0  0  0  0  0  0  0  0
   33.4162   37.3964   56.3062 H   0  0  0  0  0  0  0  0  0  0  0  0
   32.7890   38.1737   58.5507 H   0  0  0  0  0  0  0  0  0  0  0  0
   30.5825   35.1739   60.9585 H   0  0  0  0  0  0  0  0  0  0  0  0
   29.1113   37.8137   61.9260 H   0  0  0  0  0  0  0  0  0  0  0  0
   29.7105   38.1856   63.5603 H   0  0  0  0  0  0  0  0  0  0  0  0
   30.7281   38.5266   62.1404 H   0  0  0  0  0  0  0  0  0  0  0  0
   29.9993   34.4815   63.3281 H   0  0  0  0  0  0  0  0  0  0  0  0
   29.2848   35.8234   64.2539 H   0  0  0  0  0  0  0  0  0  0  0  0
   28.6856   35.4515   62.6196 H   0  0  0  0  0  0  0  0  0  0  0  0
   32.5719   37.1651   63.1347 H   0  0  0  0  0  0  0  0  0  0  0  0
   31.5543   36.8241   64.5548 H   0  0  0  0  0  0  0  0  0  0  0  0
   32.2688   35.4823   63.6289 H   0  0  0  0  0  0  0  0  0  0  0  0
   31.8360   34.1420   59.6699 H   0  0  0  0  0  0  0  0  0  0  0  0
   32.4757   33.3737   57.4258 H   0  0  0  0  0  0  0  0  0  0  0  0
  1  2  1  0  0  0  0
  1 18  1  0  0  0  0
  1 19  1  0  0  0  0
  1 20  1  0  0  0  0
  2  3  2  0  0  0  0
  2  4  1  0  0  0  0
  4  5  1  0  0  0  0
  4 21  1  0  0  0  0
  5 17  2  0  0  0  0
  5  6  1  0  0  0  0
  6  7  2  0  0  0  0
  6 22  1  0  0  0  0
  7  8  1  0  0  0  0
  7 23  1  0  0  0  0
  8  9  1  0  0  0  0
  8 16  2  0  0  0  0
  9 10  2  0  0  0  0
  9 11  1  0  0  0  0
 11 12  1  0  0  0  0
 11 24  1  0  0  0  0
 12 13  1  0  0  0  0
 12 14  1  0  0  0  0
 12 15  1  0  0  0  0
 13 25  1  0  0  0  0
 13 26  1  0  0  0  0
 13 27  1  0  0  0  0
 14 28  1  0  0  0  0
 14 29  1  0  0  0  0
 14 30  1  0  0  0  0
 15 31  1  0  0  0  0
 15 32  1  0  0  0  0
 15 33  1  0  0  0  0
 16 17  1  0  0  0  0
 16 34  1  0  0  0  0
 17 35  1  0  0  0  0
M  END
$$$$
