ZINC000000048495      none
 OpenBabel11202420153D

 51 52  0  0  1  0  0  0  0  0999 V2000
   29.5473   40.5392   67.1877 C   0  0  0  0  0  0  0  0  0  0  0  0
   30.2704   39.3230   67.3882 O   0  0  0  0  0  0  0  0  0  0  0  0
   30.4549   38.5301   66.3029 C   0  0  0  0  0  0  0  0  0  0  0  0
   29.9479   38.9185   65.0668 C   0  0  0  0  0  0  0  0  0  0  0  0
   30.1304   38.1244   63.9706 C   0  0  0  0  0  0  0  0  0  0  0  0
   29.5798   38.5461   62.6327 C   0  0  0  0  0  0  0  0  0  0  0  0
   30.8310   36.9155   64.0928 C   0  0  0  0  0  0  0  0  0  0  0  0
   31.0297   36.0593   62.9214 C   0  0  0  0  0  0  0  0  0  0  0  0
   30.5362   34.7730   62.9167 C   0  0  0  0  0  0  0  0  0  0  0  0
   30.9068   33.8677   61.8708 C   0  0  0  0  0  0  0  0  0  0  0  0
   31.2007   33.1497   61.0412 N   0  0  0  0  0  0  0  0  0  0  0  0
   29.6283   34.3294   63.9862 C   0  0  0  0  0  0  0  0  0  0  0  0
   28.5672   34.8987   64.1585 O   0  0  0  0  0  0  0  0  0  0  0  0
   29.9724   33.2924   64.7753 N   0  0  0  0  0  0  0  0  0  0  0  0
   29.0684   32.8506   65.8402 C   0  0  0  0  0  0  0  0  0  0  0  0
   29.6929   31.6664   66.5806 C   0  0  2  0  0  0  0  0  0  0  0  0
   30.1825   30.9945   65.8757 H   0  0  0  0  0  0  0  0  0  0  0  0
   28.6155   30.9077   67.3870 C   0  0  0  0  0  0  0  0  0  0  0  0
   29.3434   30.4872   68.6833 C   0  0  0  0  0  0  0  0  0  0  0  0
   30.7746   31.0416   68.5069 C   0  0  0  0  0  0  0  0  0  0  0  0
   30.6348   32.1328   67.5710 O   0  0  0  0  0  0  0  0  0  0  0  0
   31.3353   36.5271   65.3423 C   0  0  0  0  0  0  0  0  0  0  0  0
   31.1506   37.3323   66.4305 C   0  0  0  0  0  0  0  0  0  0  0  0
   31.6960   36.9188   67.7730 C   0  0  0  0  0  0  0  0  0  0  0  0
   31.0769   35.5817   68.1852 C   0  0  0  0  0  0  0  0  0  0  0  0
   33.2161   36.7706   67.6823 C   0  0  0  0  0  0  0  0  0  0  0  0
   28.5475   40.3108   66.8185 H   0  0  0  0  0  0  0  0  0  0  0  0
   29.4716   41.0770   68.1328 H   0  0  0  0  0  0  0  0  0  0  0  0
   30.0714   41.1575   66.4589 H   0  0  0  0  0  0  0  0  0  0  0  0
   29.4086   39.8495   64.9740 H   0  0  0  0  0  0  0  0  0  0  0  0
   28.5673   38.1590   62.5181 H   0  0  0  0  0  0  0  0  0  0  0  0
   29.5614   39.6344   62.5739 H   0  0  0  0  0  0  0  0  0  0  0  0
   30.2122   38.1500   61.8383 H   0  0  0  0  0  0  0  0  0  0  0  0
   31.5669   36.4347   62.0632 H   0  0  0  0  0  0  0  0  0  0  0  0
   30.8185   32.8384   64.6381 H   0  0  0  0  0  0  0  0  0  0  0  0
   28.9031   33.6702   66.5395 H   0  0  0  0  0  0  0  0  0  0  0  0
   28.1163   32.5463   65.4054 H   0  0  0  0  0  0  0  0  0  0  0  0
   27.7766   31.5648   67.6160 H   0  0  0  0  0  0  0  0  0  0  0  0
   28.2736   30.0309   66.8368 H   0  0  0  0  0  0  0  0  0  0  0  0
   28.8644   30.9365   69.5532 H   0  0  0  0  0  0  0  0  0  0  0  0
   29.3632   29.4013   68.7753 H   0  0  0  0  0  0  0  0  0  0  0  0
   31.1605   31.4054   69.4591 H   0  0  0  0  0  0  0  0  0  0  0  0
   31.4318   30.2729   68.1006 H   0  0  0  0  0  0  0  0  0  0  0  0
   31.8717   35.5953   65.4435 H   0  0  0  0  0  0  0  0  0  0  0  0
   31.4485   37.6779   68.5151 H   0  0  0  0  0  0  0  0  0  0  0  0
   31.3242   34.8226   67.4431 H   0  0  0  0  0  0  0  0  0  0  0  0
   31.4714   35.2827   69.1563 H   0  0  0  0  0  0  0  0  0  0  0  0
   29.9939   35.6875   68.2499 H   0  0  0  0  0  0  0  0  0  0  0  0
   33.6571   37.7230   67.3886 H   0  0  0  0  0  0  0  0  0  0  0  0
   33.6105   36.4715   68.6534 H   0  0  0  0  0  0  0  0  0  0  0  0
   33.4633   36.0115   66.9403 H   0  0  0  0  0  0  0  0  0  0  0  0
  1  2  1  0  0  0  0
  1 27  1  0  0  0  0
  1 28  1  0  0  0  0
  1 29  1  0  0  0  0
  2  3  1  0  0  0  0
  3 23  2  0  0  0  0
  3  4  1  0  0  0  0
  4  5  2  0  0  0  0
  4 30  1  0  0  0  0
  5  6  1  0  0  0  0
  5  7  1  0  0  0  0
  6 31  1  0  0  0  0
  6 32  1  0  0  0  0
  6 33  1  0  0  0  0
  7  8  1  0  0  0  0
  7 22  2  0  0  0  0
  8  9  2  0  0  0  0
  8 34  1  0  0  0  0
  9 10  1  0  0  0  0
  9 12  1  0  0  0  0
 10 11  3  0  0  0  0
 12 13  2  0  0  0  0
 12 14  1  0  0  0  0
 14 15  1  0  0  0  0
 14 35  1  0  0  0  0
 15 16  1  0  0  0  0
 15 36  1  0  0  0  0
 15 37  1  0  0  0  0
 16 17  1  6  0  0  0
 16 21  1  0  0  0  0
 16 18  1  0  0  0  0
 18 19  1  0  0  0  0
 18 38  1  0  0  0  0
 18 39  1  0  0  0  0
 19 20  1  0  0  0  0
 19 40  1  0  0  0  0
 19 41  1  0  0  0  0
 20 21  1  0  0  0  0
 20 42  1  0  0  0  0
 20 43  1  0  0  0  0
 22 23  1  0  0  0  0
 22 44  1  0  0  0  0
 23 24  1  0  0  0  0
 24 25  1  0  0  0  0
 24 26  1  0  0  0  0
 24 45  1  0  0  0  0
 25 46  1  0  0  0  0
 25 47  1  0  0  0  0
 25 48  1  0  0  0  0
 26 49  1  0  0  0  0
 26 50  1  0  0  0  0
 26 51  1  0  0  0  0
M  END
$$$$
