ZINC000000039641      none
 OpenBabel11202420153D

 16 16  0  0  0  0  0  0  0  0999 V2000
   31.7961   35.6522   60.3267 N   0  0  0  0  0  0  0  0  0  0  0  0
   32.1785   36.4829   59.6528 C   0  0  0  0  0  0  0  0  0  0  0  0
   32.6607   37.5300   58.8033 C   0  0  0  0  0  0  0  0  0  0  0  0
   32.7091   38.8478   59.2683 C   0  0  0  0  0  0  0  0  0  0  0  0
   32.2980   39.1384   60.5293 O   0  0  0  0  0  0  0  0  0  0  0  0
   33.1824   39.8581   58.4423 C   0  0  0  0  0  0  0  0  0  0  0  0
   33.5979   39.5745   57.1565 C   0  0  0  0  0  0  0  0  0  0  0  0
   33.5530   38.2742   56.6726 C   0  0  0  0  0  0  0  0  0  0  0  0
   33.9640   38.0063   55.4067 O   0  0  0  0  0  0  0  0  0  0  0  0
   33.0849   37.2403   57.4893 C   0  0  0  0  0  0  0  0  0  0  0  0
   33.0358   35.8971   56.9953 C   0  0  0  0  0  0  0  0  0  0  0  0
   32.9969   34.8315   56.6034 N   0  0  0  0  0  0  0  0  0  0  0  0
   32.3687   40.0748   60.7600 H   0  0  0  0  0  0  0  0  0  0  0  0
   33.2221   40.8739   58.8066 H   0  0  0  0  0  0  0  0  0  0  0  0
   33.9603   40.3702   56.5225 H   0  0  0  0  0  0  0  0  0  0  0  0
   33.8956   37.0737   55.1601 H   0  0  0  0  0  0  0  0  0  0  0  0
  1  2  3  0  0  0  0
  2  3  1  0  0  0  0
  3 10  2  0  0  0  0
  3  4  1  0  0  0  0
  4  5  1  0  0  0  0
  4  6  2  0  0  0  0
  5 13  1  0  0  0  0
  6  7  1  0  0  0  0
  6 14  1  0  0  0  0
  7  8  2  0  0  0  0
  7 15  1  0  0  0  0
  8  9  1  0  0  0  0
  8 10  1  0  0  0  0
  9 16  1  0  0  0  0
 10 11  1  0  0  0  0
 11 12  3  0  0  0  0
M  END
$$$$
