ZINC000000004778      none
 OpenBabel11202420153D

 34 37  0  0  0  0  0  0  0  0999 V2000
   30.3260   37.1398   68.0601 C   0  0  0  0  0  0  0  0  0  0  0  0
   31.2935   37.3113   66.9175 C   0  0  0  0  0  0  0  0  0  0  0  0
   32.5358   37.8950   67.1234 C   0  0  0  0  0  0  0  0  0  0  0  0
   33.3990   38.0395   66.0570 C   0  0  0  0  0  0  0  0  0  0  0  0
   33.0628   37.6183   64.8524 N   0  0  0  0  0  0  0  0  0  0  0  0
   31.8943   37.0415   64.6128 C   0  0  0  0  0  0  0  0  0  0  0  0
   30.9594   36.8881   65.6347 C   0  0  0  0  0  0  0  0  0  0  0  0
   29.6919   36.3617   65.4031 N   0  0  0  0  0  0  0  0  0  0  0  0
   29.3872   35.3405   64.6165 C   0  0  0  0  0  0  0  0  0  0  0  0
   28.2173   35.0156   64.5544 O   0  0  0  0  0  0  0  0  0  0  0  0
   30.3420   34.5688   63.8148 C   0  0  0  0  0  0  0  0  0  0  0  0
   30.1822   33.1852   63.6757 C   0  0  0  0  0  0  0  0  0  0  0  0
   31.0650   32.5002   62.8591 C   0  0  0  0  0  0  0  0  0  0  0  0
   32.0690   33.1956   62.2094 C   0  0  0  0  0  0  0  0  0  0  0  0
   32.2132   34.4962   62.3699 N   0  0  0  0  0  0  0  0  0  0  0  0
   31.4079   35.1974   63.1556 C   0  0  0  0  0  0  0  0  0  0  0  0
   31.6300   36.5526   63.3328 N   0  0  0  0  0  0  0  0  0  0  0  0
   31.5874   37.4647   62.1872 C   0  0  0  0  0  0  0  0  0  0  0  0
   30.7002   38.7057   62.3049 C   0  0  0  0  0  0  0  0  0  0  0  0
   30.2790   37.5474   61.3983 C   0  0  0  0  0  0  0  0  0  0  0  0
   29.6916   38.0229   68.1346 H   0  0  0  0  0  0  0  0  0  0  0  0
   29.7060   36.2609   67.8823 H   0  0  0  0  0  0  0  0  0  0  0  0
   30.8805   37.0111   68.9896 H   0  0  0  0  0  0  0  0  0  0  0  0
   32.8220   38.2362   68.1073 H   0  0  0  0  0  0  0  0  0  0  0  0
   34.3622   38.5035   66.2100 H   0  0  0  0  0  0  0  0  0  0  0  0
   28.9540   36.7875   65.8666 H   0  0  0  0  0  0  0  0  0  0  0  0
   29.3898   32.6649   64.1933 H   0  0  0  0  0  0  0  0  0  0  0  0
   30.9712   31.4320   62.7304 H   0  0  0  0  0  0  0  0  0  0  0  0
   32.7470   32.6633   61.5587 H   0  0  0  0  0  0  0  0  0  0  0  0
   32.5186   37.5624   61.6292 H   0  0  0  0  0  0  0  0  0  0  0  0
   30.1483   38.8435   63.2346 H   0  0  0  0  0  0  0  0  0  0  0  0
   31.0478   39.6202   61.8243 H   0  0  0  0  0  0  0  0  0  0  0  0
   30.3495   37.6999   60.3214 H   0  0  0  0  0  0  0  0  0  0  0  0
   29.4502   36.9229   61.7315 H   0  0  0  0  0  0  0  0  0  0  0  0
  1  2  1  0  0  0  0
  1 21  1  0  0  0  0
  1 22  1  0  0  0  0
  1 23  1  0  0  0  0
  2  7  2  0  0  0  0
  2  3  1  0  0  0  0
  3  4  2  0  0  0  0
  3 24  1  0  0  0  0
  4  5  1  0  0  0  0
  4 25  1  0  0  0  0
  5  6  2  0  0  0  0
  6 17  1  0  0  0  0
  6  7  1  0  0  0  0
  7  8  1  0  0  0  0
  8  9  1  0  0  0  0
  8 26  1  0  0  0  0
  9 10  2  0  0  0  0
  9 11  1  0  0  0  0
 11 16  2  0  0  0  0
 11 12  1  0  0  0  0
 12 13  2  0  0  0  0
 12 27  1  0  0  0  0
 13 14  1  0  0  0  0
 13 28  1  0  0  0  0
 14 15  2  0  0  0  0
 14 29  1  0  0  0  0
 15 16  1  0  0  0  0
 16 17  1  0  0  0  0
 17 18  1  0  0  0  0
 18 20  1  0  0  0  0
 18 19  1  0  0  0  0
 18 30  1  0  0  0  0
 19 20  1  0  0  0  0
 19 31  1  0  0  0  0
 19 32  1  0  0  0  0
 20 33  1  0  0  0  0
 20 34  1  0  0  0  0
M  END
$$$$
