ZINC000000018991      none
 OpenBabel11202420153D

 27 28  0  0  0  0  0  0  0  0999 V2000
   31.3832   35.2894   61.0317 O   0  0  0  0  0  0  0  0  0  0  0  0
   31.7500   35.9721   60.0956 C   0  0  0  0  0  0  0  0  0  0  0  0
   32.2916   35.4945   58.9015 C   0  0  0  0  0  0  0  0  0  0  0  0
   32.6171   36.4754   58.0379 C   0  0  0  0  0  0  0  0  0  0  0  0
   33.1672   36.2859   56.8058 N   0  0  0  0  0  0  0  0  0  0  0  0
   33.4771   37.4389   55.9567 C   0  0  0  0  0  0  0  0  0  0  0  0
   33.5982   36.9892   54.5236 C   0  0  0  0  0  0  0  0  0  0  0  0
   34.4376   37.6631   53.6563 C   0  0  0  0  0  0  0  0  0  0  0  0
   34.5524   37.2478   52.3428 C   0  0  0  0  0  0  0  0  0  0  0  0
   33.8199   36.1648   51.8940 C   0  0  0  0  0  0  0  0  0  0  0  0
   32.9766   35.4940   52.7598 C   0  0  0  0  0  0  0  0  0  0  0  0
   32.8657   35.9062   54.0746 C   0  0  0  0  0  0  0  0  0  0  0  0
   32.2764   37.8174   58.6422 C   0  0  0  0  0  0  0  0  0  0  0  0
   31.6960   37.4824   60.0289 C   0  0  0  0  0  0  0  0  0  0  0  0
   32.4391   34.4451   58.6930 H   0  0  0  0  0  0  0  0  0  0  0  0
   33.3537   35.3876   56.4909 H   0  0  0  0  0  0  0  0  0  0  0  0
   32.6788   38.1763   56.0399 H   0  0  0  0  0  0  0  0  0  0  0  0
   34.4184   37.8845   56.2785 H   0  0  0  0  0  0  0  0  0  0  0  0
   35.0066   38.5120   54.0059 H   0  0  0  0  0  0  0  0  0  0  0  0
   35.2110   37.7719   51.6662 H   0  0  0  0  0  0  0  0  0  0  0  0
   33.9062   35.8429   50.8666 H   0  0  0  0  0  0  0  0  0  0  0  0
   32.4039   34.6482   52.4090 H   0  0  0  0  0  0  0  0  0  0  0  0
   32.2065   35.3825   54.7511 H   0  0  0  0  0  0  0  0  0  0  0  0
   31.5341   38.3345   58.0343 H   0  0  0  0  0  0  0  0  0  0  0  0
   33.1749   38.4262   58.7430 H   0  0  0  0  0  0  0  0  0  0  0  0
   30.6664   37.8315   60.1064 H   0  0  0  0  0  0  0  0  0  0  0  0
   32.3075   37.9214   60.8173 H   0  0  0  0  0  0  0  0  0  0  0  0
  1  2  2  0  0  0  0
  2 14  1  0  0  0  0
  2  3  1  0  0  0  0
  3  4  2  0  0  0  0
  3 15  1  0  0  0  0
  4  5  1  0  0  0  0
  4 13  1  0  0  0  0
  5  6  1  0  0  0  0
  5 16  1  0  0  0  0
  6  7  1  0  0  0  0
  6 17  1  0  0  0  0
  6 18  1  0  0  0  0
  7 12  2  0  0  0  0
  7  8  1  0  0  0  0
  8  9  2  0  0  0  0
  8 19  1  0  0  0  0
  9 10  1  0  0  0  0
  9 20  1  0  0  0  0
 10 11  2  0  0  0  0
 10 21  1  0  0  0  0
 11 12  1  0  0  0  0
 11 22  1  0  0  0  0
 12 23  1  0  0  0  0
 13 14  1  0  0  0  0
 13 24  1  0  0  0  0
 13 25  1  0  0  0  0
 14 26  1  0  0  0  0
 14 27  1  0  0  0  0
M  END
$$$$
