ZINC000000034791      none
 OpenBabel11202420153D

 33 36  0  0  0  0  0  0  0  0999 V2000
   29.5426   37.7287   62.7220 C   0  0  0  0  0  0  0  0  0  0  0  0
   29.0760   36.8533   61.7579 C   0  0  0  0  0  0  0  0  0  0  0  0
   29.7769   36.6807   60.5816 C   0  0  0  0  0  0  0  0  0  0  0  0
   30.9568   37.3903   60.3660 C   0  0  0  0  0  0  0  0  0  0  0  0
   31.7150   37.2086   59.1038 C   0  0  0  0  0  0  0  0  0  0  0  0
   32.0002   38.1858   58.1954 C   0  0  0  0  0  0  0  0  0  0  0  0
   32.7078   37.6016   57.1901 N   0  0  0  0  0  0  0  0  0  0  0  0
   33.2684   38.0981   56.0063 N   0  0  0  0  0  0  0  0  0  0  0  0
   33.9105   37.2695   55.2066 C   0  0  0  0  0  0  0  0  0  0  0  0
   34.5101   37.7672   53.9442 C   0  0  0  0  0  0  0  0  0  0  0  0
   34.6264   36.9202   52.8437 C   0  0  0  0  0  0  0  0  0  0  0  0
   35.1808   37.3899   51.6703 C   0  0  0  0  0  0  0  0  0  0  0  0
   35.6300   38.6957   51.5887 C   0  0  0  0  0  0  0  0  0  0  0  0
   35.5218   39.5392   52.6797 C   0  0  0  0  0  0  0  0  0  0  0  0
   34.9644   39.0818   53.8565 C   0  0  0  0  0  0  0  0  0  0  0  0
   34.0300   35.9081   55.5597 C   0  0  0  0  0  0  0  0  0  0  0  0
   33.5069   35.4545   56.6708 N   0  0  0  0  0  0  0  0  0  0  0  0
   32.8441   36.2695   57.5024 C   0  0  0  0  0  0  0  0  0  0  0  0
   32.2379   36.0549   58.6602 N   0  0  0  0  0  0  0  0  0  0  0  0
   31.4249   38.2669   61.3430 C   0  0  0  0  0  0  0  0  0  0  0  0
   30.7131   38.4357   62.5133 C   0  0  0  0  0  0  0  0  0  0  0  0
   28.9911   37.8605   63.6411 H   0  0  0  0  0  0  0  0  0  0  0  0
   28.1614   36.3042   61.9258 H   0  0  0  0  0  0  0  0  0  0  0  0
   29.4116   35.9972   59.8294 H   0  0  0  0  0  0  0  0  0  0  0  0
   31.7179   39.2261   58.2616 H   0  0  0  0  0  0  0  0  0  0  0  0
   34.2798   35.8994   52.9076 H   0  0  0  0  0  0  0  0  0  0  0  0
   35.2677   36.7357   50.8154 H   0  0  0  0  0  0  0  0  0  0  0  0
   36.0666   39.0580   50.6698 H   0  0  0  0  0  0  0  0  0  0  0  0
   35.8740   40.5579   52.6104 H   0  0  0  0  0  0  0  0  0  0  0  0
   34.8802   39.7413   54.7074 H   0  0  0  0  0  0  0  0  0  0  0  0
   34.5599   35.2321   54.9050 H   0  0  0  0  0  0  0  0  0  0  0  0
   32.3411   38.8159   61.1831 H   0  0  0  0  0  0  0  0  0  0  0  0
   31.0726   39.1181   63.2692 H   0  0  0  0  0  0  0  0  0  0  0  0
  1 21  2  0  0  0  0
  1  2  1  0  0  0  0
  1 22  1  0  0  0  0
  2  3  2  0  0  0  0
  2 23  1  0  0  0  0
  3  4  1  0  0  0  0
  3 24  1  0  0  0  0
  4  5  1  0  0  0  0
  4 20  2  0  0  0  0
  5 19  1  0  0  0  0
  5  6  2  0  0  0  0
  6  7  1  0  0  0  0
  6 25  1  0  0  0  0
  7 18  1  0  0  0  0
  7  8  1  0  0  0  0
  8  9  2  0  0  0  0
  9 10  1  0  0  0  0
  9 16  1  0  0  0  0
 10 15  2  0  0  0  0
 10 11  1  0  0  0  0
 11 12  2  0  0  0  0
 11 26  1  0  0  0  0
 12 13  1  0  0  0  0
 12 27  1  0  0  0  0
 13 14  2  0  0  0  0
 13 28  1  0  0  0  0
 14 15  1  0  0  0  0
 14 29  1  0  0  0  0
 15 30  1  0  0  0  0
 16 17  2  0  0  0  0
 16 31  1  0  0  0  0
 17 18  1  0  0  0  0
 18 19  2  0  0  0  0
 20 21  1  0  0  0  0
 20 32  1  0  0  0  0
 21 33  1  0  0  0  0
M  END
$$$$
