ZINC000000002501      none
 OpenBabel11202420153D

 20 20  0  0  0  0  0  0  0  0999 V2000
   33.3385   35.7298   55.2459 C   0  0  0  0  0  0  0  0  0  0  0  0
   33.6521   37.2113   55.4652 C   0  0  0  0  0  0  0  0  0  0  0  0
   33.2366   37.6120   56.8573 C   0  0  0  0  0  0  0  0  0  0  0  0
   32.6692   36.6774   57.7035 C   0  0  0  0  0  0  0  0  0  0  0  0
   32.2911   37.0387   58.9832 C   0  0  0  0  0  0  0  0  0  0  0  0
   32.4709   38.3425   59.4166 C   0  0  0  0  0  0  0  0  0  0  0  0
   32.0948   38.7008   60.6734 O   0  0  0  0  0  0  0  0  0  0  0  0
   33.0425   39.2830   58.5650 C   0  0  0  0  0  0  0  0  0  0  0  0
   33.2257   40.5626   58.9876 O   0  0  0  0  0  0  0  0  0  0  0  0
   33.4240   38.9130   57.2854 C   0  0  0  0  0  0  0  0  0  0  0  0
   32.2682   35.5631   55.3678 H   0  0  0  0  0  0  0  0  0  0  0  0
   33.6390   35.4400   54.2391 H   0  0  0  0  0  0  0  0  0  0  0  0
   33.8848   35.1311   55.9748 H   0  0  0  0  0  0  0  0  0  0  0  0
   33.1057   37.8100   54.7364 H   0  0  0  0  0  0  0  0  0  0  0  0
   34.7224   37.3779   55.3433 H   0  0  0  0  0  0  0  0  0  0  0  0
   32.5247   35.6619   57.3655 H   0  0  0  0  0  0  0  0  0  0  0  0
   31.8520   36.3058   59.6437 H   0  0  0  0  0  0  0  0  0  0  0  0
   31.7122   37.9786   61.1903 H   0  0  0  0  0  0  0  0  0  0  0  0
   32.9284   40.7241   59.8933 H   0  0  0  0  0  0  0  0  0  0  0  0
   33.8674   39.6411   56.6222 H   0  0  0  0  0  0  0  0  0  0  0  0
  1  2  1  0  0  0  0
  1 11  1  0  0  0  0
  1 12  1  0  0  0  0
  1 13  1  0  0  0  0
  2  3  1  0  0  0  0
  2 14  1  0  0  0  0
  2 15  1  0  0  0  0
  3 10  2  0  0  0  0
  3  4  1  0  0  0  0
  4  5  2  0  0  0  0
  4 16  1  0  0  0  0
  5  6  1  0  0  0  0
  5 17  1  0  0  0  0
  6  7  1  0  0  0  0
  6  8  2  0  0  0  0
  7 18  1  0  0  0  0
  8  9  1  0  0  0  0
  8 10  1  0  0  0  0
  9 19  1  0  0  0  0
 10 20  1  0  0  0  0
M  END
$$$$
