ZINC000000034327      none
 OpenBabel11202420153D

 35 37  0  0  1  0  0  0  0  0999 V2000
   32.6689   34.0682   61.7372 N   0  0  0  0  0  0  0  0  0  0  0  0
   31.6030   34.8913   61.7883 C   0  0  0  0  0  0  0  0  0  0  0  0
   30.4204   34.6858   63.0090 S   0  0  0  0  0  0  0  0  0  0  0  0
   31.4651   35.8730   60.8750 N   0  0  0  0  0  0  0  0  0  0  0  0
   32.3532   36.1438   59.8360 N   0  0  0  0  0  0  0  0  0  0  0  0
   32.0047   37.1348   59.0905 C   0  0  0  0  0  0  0  0  0  0  0  0
   32.7613   37.6308   57.9258 C   0  0  0  0  0  0  0  0  0  0  0  0
   33.2261   38.9479   57.9002 C   0  0  0  0  0  0  0  0  0  0  0  0
   33.9375   39.4035   56.8098 C   0  0  0  0  0  0  0  0  0  0  0  0
   34.1818   38.5620   55.7382 C   0  0  0  0  0  0  0  0  0  0  0  0
   33.7194   37.2585   55.7545 C   0  0  0  0  0  0  0  0  0  0  0  0
   33.0114   36.7876   56.8405 C   0  0  0  0  0  0  0  0  0  0  0  0
   30.7002   37.7108   59.5932 C   0  0  0  0  0  0  0  0  0  0  0  0
   30.3490   36.8296   60.8083 C   0  0  2  0  0  0  0  0  0  0  0  0
   29.4058   36.3079   60.6462 H   0  0  0  0  0  0  0  0  0  0  0  0
   30.2877   37.6612   62.0636 C   0  0  0  0  0  0  0  0  0  0  0  0
   29.0738   38.1469   62.5123 C   0  0  0  0  0  0  0  0  0  0  0  0
   29.0169   38.9060   63.6661 C   0  0  0  0  0  0  0  0  0  0  0  0
   30.1751   39.1873   64.3662 C   0  0  0  0  0  0  0  0  0  0  0  0
   31.3897   38.7055   63.9150 C   0  0  0  0  0  0  0  0  0  0  0  0
   31.4460   37.9428   62.7635 C   0  0  0  0  0  0  0  0  0  0  0  0
   32.7661   33.3593   62.3921 H   0  0  0  0  0  0  0  0  0  0  0  0
   33.3390   34.1847   61.0456 H   0  0  0  0  0  0  0  0  0  0  0  0
   33.0323   39.6065   58.7338 H   0  0  0  0  0  0  0  0  0  0  0  0
   34.3013   40.4201   56.7906 H   0  0  0  0  0  0  0  0  0  0  0  0
   34.7356   38.9251   54.8851 H   0  0  0  0  0  0  0  0  0  0  0  0
   33.9135   36.6077   54.9147 H   0  0  0  0  0  0  0  0  0  0  0  0
   32.6518   35.7693   56.8522 H   0  0  0  0  0  0  0  0  0  0  0  0
   30.8323   38.7496   59.8956 H   0  0  0  0  0  0  0  0  0  0  0  0
   29.9267   37.6292   58.8295 H   0  0  0  0  0  0  0  0  0  0  0  0
   28.1693   37.9307   61.9630 H   0  0  0  0  0  0  0  0  0  0  0  0
   28.0679   39.2822   64.0188 H   0  0  0  0  0  0  0  0  0  0  0  0
   30.1312   39.7832   65.2659 H   0  0  0  0  0  0  0  0  0  0  0  0
   32.2948   38.9252   64.4619 H   0  0  0  0  0  0  0  0  0  0  0  0
   32.3950   37.5667   62.4107 H   0  0  0  0  0  0  0  0  0  0  0  0
  1  2  1  0  0  0  0
  1 22  1  0  0  0  0
  1 23  1  0  0  0  0
  2  3  2  0  0  0  0
  2  4  1  0  0  0  0
  4 14  1  0  0  0  0
  4  5  1  0  0  0  0
  5  6  2  0  0  0  0
  6  7  1  0  0  0  0
  6 13  1  0  0  0  0
  7 12  2  0  0  0  0
  7  8  1  0  0  0  0
  8  9  2  0  0  0  0
  8 24  1  0  0  0  0
  9 10  1  0  0  0  0
  9 25  1  0  0  0  0
 10 11  2  0  0  0  0
 10 26  1  0  0  0  0
 11 12  1  0  0  0  0
 11 27  1  0  0  0  0
 12 28  1  0  0  0  0
 13 14  1  0  0  0  0
 13 29  1  0  0  0  0
 13 30  1  0  0  0  0
 14 15  1  6  0  0  0
 14 16  1  0  0  0  0
 16 21  2  0  0  0  0
 16 17  1  0  0  0  0
 17 18  2  0  0  0  0
 17 31  1  0  0  0  0
 18 19  1  0  0  0  0
 18 32  1  0  0  0  0
 19 20  2  0  0  0  0
 19 33  1  0  0  0  0
 20 21  1  0  0  0  0
 20 34  1  0  0  0  0
 21 35  1  0  0  0  0
M  END
$$$$
