ZINC000000006592      none
 OpenBabel11202420153D

 24 25  0  0  0  0  0  0  0  0999 V2000
   34.0197   39.8062   55.8074 C   0  0  0  0  0  0  0  0  0  0  0  0
   33.5561   39.0073   56.9982 C   0  0  0  0  0  0  0  0  0  0  0  0
   33.2265   39.6540   58.1757 C   0  0  0  0  0  0  0  0  0  0  0  0
   32.8014   38.9273   59.2693 C   0  0  0  0  0  0  0  0  0  0  0  0
   32.7040   37.5396   59.1855 C   0  0  0  0  0  0  0  0  0  0  0  0
   32.2477   36.7532   60.3576 C   0  0  0  0  0  0  0  0  0  0  0  0
   31.5872   35.5830   60.2439 C   0  0  0  0  0  0  0  0  0  0  0  0
   31.2469   34.9941   61.8691 S   0  0  0  0  0  0  0  0  0  0  0  0
   32.0175   36.3638   62.5410 C   0  0  0  0  0  0  0  0  0  0  0  0
   32.1614   36.6307   64.0171 C   0  0  0  0  0  0  0  0  0  0  0  0
   32.4579   37.1358   61.6089 N   0  0  0  0  0  0  0  0  0  0  0  0
   33.0424   36.8930   57.9982 C   0  0  0  0  0  0  0  0  0  0  0  0
   33.4613   37.6301   56.9092 C   0  0  0  0  0  0  0  0  0  0  0  0
   35.1041   39.9116   55.8404 H   0  0  0  0  0  0  0  0  0  0  0  0
   33.7324   39.2917   54.8904 H   0  0  0  0  0  0  0  0  0  0  0  0
   33.5578   40.7933   55.8301 H   0  0  0  0  0  0  0  0  0  0  0  0
   33.3024   40.7294   58.2395 H   0  0  0  0  0  0  0  0  0  0  0  0
   32.5443   39.4332   60.1883 H   0  0  0  0  0  0  0  0  0  0  0  0
   31.3149   35.0939   59.3204 H   0  0  0  0  0  0  0  0  0  0  0  0
   31.6999   35.8192   64.5798 H   0  0  0  0  0  0  0  0  0  0  0  0
   33.2190   36.6950   64.2733 H   0  0  0  0  0  0  0  0  0  0  0  0
   31.6695   37.5711   64.2660 H   0  0  0  0  0  0  0  0  0  0  0  0
   32.9734   35.8174   57.9293 H   0  0  0  0  0  0  0  0  0  0  0  0
   33.7202   37.1305   55.9875 H   0  0  0  0  0  0  0  0  0  0  0  0
  1  2  1  0  0  0  0
  1 14  1  0  0  0  0
  1 15  1  0  0  0  0
  1 16  1  0  0  0  0
  2 13  2  0  0  0  0
  2  3  1  0  0  0  0
  3  4  2  0  0  0  0
  3 17  1  0  0  0  0
  4  5  1  0  0  0  0
  4 18  1  0  0  0  0
  5  6  1  0  0  0  0
  5 12  2  0  0  0  0
  6 11  1  0  0  0  0
  6  7  2  0  0  0  0
  7  8  1  0  0  0  0
  7 19  1  0  0  0  0
  8  9  1  0  0  0  0
  9 10  1  0  0  0  0
  9 11  2  0  0  0  0
 10 20  1  0  0  0  0
 10 21  1  0  0  0  0
 10 22  1  0  0  0  0
 12 13  1  0  0  0  0
 12 23  1  0  0  0  0
 13 24  1  0  0  0  0
M  END
$$$$
