ZINC000000032020      none
 OpenBabel11202420163D

 34 36  0  0  0  0  0  0  0  0999 V2000
   31.7377   32.8233   61.4395 C   0  0  0  0  0  0  0  0  0  0  0  0
   31.4304   34.1848   61.8846 N   0  0  0  0  0  0  0  0  0  0  0  0
   31.7649   35.2785   61.0757 N   0  0  0  0  0  0  0  0  0  0  0  0
   31.7877   35.1478   59.7845 C   0  0  0  0  0  0  0  0  0  0  0  0
   32.2655   36.2574   58.9395 C   0  0  0  0  0  0  0  0  0  0  0  0
   32.8756   35.9922   57.7111 C   0  0  0  0  0  0  0  0  0  0  0  0
   33.3197   37.0350   56.9255 C   0  0  0  0  0  0  0  0  0  0  0  0
   33.1630   38.3429   57.3504 C   0  0  0  0  0  0  0  0  0  0  0  0
   32.5606   38.6155   58.5651 C   0  0  0  0  0  0  0  0  0  0  0  0
   32.1050   37.5816   59.3611 C   0  0  0  0  0  0  0  0  0  0  0  0
   31.5118   37.8486   60.5451 F   0  0  0  0  0  0  0  0  0  0  0  0
   30.8122   34.3895   63.0992 C   0  0  0  0  0  0  0  0  0  0  0  0
   30.0100   33.4973   63.5867 N   0  0  0  0  0  0  0  0  0  0  0  0
   29.4712   34.1034   65.0491 S   0  0  0  0  0  0  0  0  0  0  0  0
   30.0145   33.2878   66.0782 O   0  0  0  0  0  0  0  0  0  0  0  0
   28.0881   34.3967   64.9090 O   0  0  0  0  0  0  0  0  0  0  0  0
   30.3456   35.6438   65.0694 C   0  0  0  0  0  0  0  0  0  0  0  0
   30.4226   36.6940   65.9385 C   0  0  0  0  0  0  0  0  0  0  0  0
   31.2319   37.7791   65.6341 C   0  0  0  0  0  0  0  0  0  0  0  0
   31.9513   37.7828   64.4521 C   0  0  0  0  0  0  0  0  0  0  0  0
   31.8753   36.7255   63.5738 C   0  0  0  0  0  0  0  0  0  0  0  0
   31.0622   35.6195   63.8656 C   0  0  0  0  0  0  0  0  0  0  0  0
   30.8957   32.4279   60.8714 H   0  0  0  0  0  0  0  0  0  0  0  0
   32.6263   32.8393   60.8083 H   0  0  0  0  0  0  0  0  0  0  0  0
   31.9200   32.1896   62.3074 H   0  0  0  0  0  0  0  0  0  0  0  0
   31.4565   34.2262   59.3291 H   0  0  0  0  0  0  0  0  0  0  0  0
   32.9993   34.9725   57.3775 H   0  0  0  0  0  0  0  0  0  0  0  0
   33.7917   36.8305   55.9759 H   0  0  0  0  0  0  0  0  0  0  0  0
   33.5131   39.1548   56.7303 H   0  0  0  0  0  0  0  0  0  0  0  0
   32.4417   39.6385   58.8902 H   0  0  0  0  0  0  0  0  0  0  0  0
   29.8563   36.6802   66.8580 H   0  0  0  0  0  0  0  0  0  0  0  0
   31.2995   38.6150   66.3146 H   0  0  0  0  0  0  0  0  0  0  0  0
   32.5812   38.6275   64.2152 H   0  0  0  0  0  0  0  0  0  0  0  0
   32.4447   36.7469   62.6563 H   0  0  0  0  0  0  0  0  0  0  0  0
  1  2  1  0  0  0  0
  1 23  1  0  0  0  0
  1 24  1  0  0  0  0
  1 25  1  0  0  0  0
  2  3  1  0  0  0  0
  2 12  1  0  0  0  0
  3  4  2  0  0  0  0
  4  5  1  0  0  0  0
  4 26  1  0  0  0  0
  5 10  2  0  0  0  0
  5  6  1  0  0  0  0
  6  7  2  0  0  0  0
  6 27  1  0  0  0  0
  7  8  1  0  0  0  0
  7 28  1  0  0  0  0
  8  9  2  0  0  0  0
  8 29  1  0  0  0  0
  9 10  1  0  0  0  0
  9 30  1  0  0  0  0
 10 11  1  0  0  0  0
 12 22  1  0  0  0  0
 12 13  2  0  0  0  0
 13 14  1  0  0  0  0
 14 15  2  0  0  0  0
 14 16  2  0  0  0  0
 14 17  1  0  0  0  0
 17 22  2  0  0  0  0
 17 18  1  0  0  0  0
 18 19  2  0  0  0  0
 18 31  1  0  0  0  0
 19 20  1  0  0  0  0
 19 32  1  0  0  0  0
 20 21  2  0  0  0  0
 20 33  1  0  0  0  0
 21 22  1  0  0  0  0
 21 34  1  0  0  0  0
M  END
$$$$
