ZINC000000055533      none
 OpenBabel11202420153D

 37 40  0  0  0  0  0  0  0  0999 V2000
   33.8899   35.5517   55.9786 C   0  0  0  0  0  0  0  0  0  0  0  0
   33.6865   36.8857   56.2823 C   0  0  0  0  0  0  0  0  0  0  0  0
   32.9326   37.2337   57.3821 C   0  0  0  0  0  0  0  0  0  0  0  0
   32.3698   36.2472   58.1942 C   0  0  0  0  0  0  0  0  0  0  0  0
   32.5808   34.9142   57.8888 C   0  0  0  0  0  0  0  0  0  0  0  0
   33.3391   34.5719   56.7801 C   0  0  0  0  0  0  0  0  0  0  0  0
   32.0090   33.8012   58.7304 C   0  0  0  0  0  0  0  0  0  0  0  0
   30.9128   34.3564   59.6427 C   0  0  0  0  0  0  0  0  0  0  0  0
   31.4504   35.6292   60.3084 C   0  0  0  0  0  0  0  0  0  0  0  0
   31.6048   36.6641   59.2825 N   0  0  0  0  0  0  0  0  0  0  0  0
   32.1431   37.9023   59.8610 C   0  0  0  0  0  0  0  0  0  0  0  0
   31.8421   37.9395   61.3371 C   0  0  0  0  0  0  0  0  0  0  0  0
   32.6370   37.4547   62.3160 C   0  0  0  0  0  0  0  0  0  0  0  0
   32.0007   37.6863   63.5052 N   0  0  0  0  0  0  0  0  0  0  0  0
   32.3352   37.4128   64.7999 C   0  0  0  0  0  0  0  0  0  0  0  0
   31.5092   37.7563   65.8102 C   0  0  0  0  0  0  0  0  0  0  0  0
   30.2906   38.4012   65.5413 C   0  0  0  0  0  0  0  0  0  0  0  0
   29.9450   38.6797   64.2555 C   0  0  0  0  0  0  0  0  0  0  0  0
   30.8187   38.3151   63.2114 C   0  0  0  0  0  0  0  0  0  0  0  0
   30.7479   38.4621   61.8960 N   0  0  0  0  0  0  0  0  0  0  0  0
   34.4784   35.2771   55.1156 H   0  0  0  0  0  0  0  0  0  0  0  0
   34.1187   37.6540   55.6583 H   0  0  0  0  0  0  0  0  0  0  0  0
   32.7757   38.2761   57.6171 H   0  0  0  0  0  0  0  0  0  0  0  0
   33.4998   33.5310   56.5412 H   0  0  0  0  0  0  0  0  0  0  0  0
   32.8002   33.3635   59.3390 H   0  0  0  0  0  0  0  0  0  0  0  0
   31.5863   33.0357   58.0797 H   0  0  0  0  0  0  0  0  0  0  0  0
   30.0278   34.5947   59.0526 H   0  0  0  0  0  0  0  0  0  0  0  0
   30.6598   33.6200   60.4054 H   0  0  0  0  0  0  0  0  0  0  0  0
   30.7478   35.9687   61.0694 H   0  0  0  0  0  0  0  0  0  0  0  0
   32.4175   35.4219   60.7664 H   0  0  0  0  0  0  0  0  0  0  0  0
   33.2221   37.9352   59.7093 H   0  0  0  0  0  0  0  0  0  0  0  0
   31.6815   38.7614   59.3743 H   0  0  0  0  0  0  0  0  0  0  0  0
   33.5955   36.9746   62.1847 H   0  0  0  0  0  0  0  0  0  0  0  0
   33.2695   36.9166   65.0177 H   0  0  0  0  0  0  0  0  0  0  0  0
   31.7861   37.5339   66.8302 H   0  0  0  0  0  0  0  0  0  0  0  0
   29.6310   38.6743   66.3517 H   0  0  0  0  0  0  0  0  0  0  0  0
   29.0108   39.1755   64.0369 H   0  0  0  0  0  0  0  0  0  0  0  0
  1  6  2  0  0  0  0
  1  2  1  0  0  0  0
  1 21  1  0  0  0  0
  2  3  2  0  0  0  0
  2 22  1  0  0  0  0
  3  4  1  0  0  0  0
  3 23  1  0  0  0  0
  4 10  1  0  0  0  0
  4  5  2  0  0  0  0
  5  6  1  0  0  0  0
  5  7  1  0  0  0  0
  6 24  1  0  0  0  0
  7  8  1  0  0  0  0
  7 25  1  0  0  0  0
  7 26  1  0  0  0  0
  8  9  1  0  0  0  0
  8 27  1  0  0  0  0
  8 28  1  0  0  0  0
  9 10  1  0  0  0  0
  9 29  1  0  0  0  0
  9 30  1  0  0  0  0
 10 11  1  0  0  0  0
 11 12  1  0  0  0  0
 11 31  1  0  0  0  0
 11 32  1  0  0  0  0
 12 20  1  0  0  0  0
 12 13  2  0  0  0  0
 13 14  1  0  0  0  0
 13 33  1  0  0  0  0
 14 19  1  0  0  0  0
 14 15  1  0  0  0  0
 15 16  2  0  0  0  0
 15 34  1  0  0  0  0
 16 17  1  0  0  0  0
 16 35  1  0  0  0  0
 17 18  2  0  0  0  0
 17 36  1  0  0  0  0
 18 19  1  0  0  0  0
 18 37  1  0  0  0  0
 19 20  2  0  0  0  0
M  END
$$$$
