ZINC000000032919      none
 OpenBabel11202420153D

 45 47  0  0  1  0  0  0  0  0999 V2000
   32.8136   37.3798   67.4728 O   0  0  0  0  0  0  0  0  0  0  0  0
   32.3599   36.9790   66.4272 C   0  0  0  0  0  0  0  0  0  0  0  0
   32.5688   37.6021   65.0537 C   0  0  0  0  0  0  0  0  0  0  0  0
   31.2625   37.2558   64.3030 C   0  0  1  0  0  0  0  0  0  0  0  0
   30.5979   38.1190   64.2673 H   0  0  0  0  0  0  0  0  0  0  0  0
   31.5627   36.7588   62.9124 C   0  0  0  0  0  0  0  0  0  0  0  0
   32.6241   36.2215   62.6762 O   0  0  0  0  0  0  0  0  0  0  0  0
   30.6518   36.9117   61.9308 N   0  0  0  0  0  0  0  0  0  0  0  0
   30.9435   36.4285   60.5790 C   0  0  0  0  0  0  0  0  0  0  0  0
   32.1883   37.1374   60.0415 C   0  0  0  0  0  0  0  0  0  0  0  0
   32.4884   36.6404   58.6508 C   0  0  0  0  0  0  0  0  0  0  0  0
   33.0976   37.4770   57.7343 C   0  0  0  0  0  0  0  0  0  0  0  0
   33.3768   37.0197   56.4600 C   0  0  0  0  0  0  0  0  0  0  0  0
   33.0382   35.7290   56.0993 C   0  0  0  0  0  0  0  0  0  0  0  0
   32.4246   34.8940   57.0142 C   0  0  0  0  0  0  0  0  0  0  0  0
   32.1493   35.3498   58.2899 C   0  0  0  0  0  0  0  0  0  0  0  0
   30.6515   36.1332   65.1625 C   0  0  0  0  0  0  0  0  0  0  0  0
   30.4956   34.8678   64.3219 C   0  0  0  0  0  0  0  0  0  0  0  0
   29.8904   33.7550   65.1809 C   0  0  0  0  0  0  0  0  0  0  0  0
   28.5250   34.2027   65.7064 C   0  0  0  0  0  0  0  0  0  0  0  0
   28.6932   35.4621   66.5589 C   0  0  0  0  0  0  0  0  0  0  0  0
   29.2949   36.5796   65.7034 C   0  0  0  0  0  0  0  0  0  0  0  0
   31.5764   35.8976   66.2585 O   0  0  0  0  0  0  0  0  0  0  0  0
   33.4284   37.1548   64.5545 H   0  0  0  0  0  0  0  0  0  0  0  0
   32.6902   38.6824   65.1345 H   0  0  0  0  0  0  0  0  0  0  0  0
   29.8030   37.3414   62.1196 H   0  0  0  0  0  0  0  0  0  0  0  0
   31.1216   35.3535   60.6078 H   0  0  0  0  0  0  0  0  0  0  0  0
   30.0957   36.6390   59.9270 H   0  0  0  0  0  0  0  0  0  0  0  0
   32.0102   38.2124   60.0126 H   0  0  0  0  0  0  0  0  0  0  0  0
   33.0362   36.9270   60.6934 H   0  0  0  0  0  0  0  0  0  0  0  0
   33.3584   38.4867   58.0149 H   0  0  0  0  0  0  0  0  0  0  0  0
   33.8564   37.6720   55.7453 H   0  0  0  0  0  0  0  0  0  0  0  0
   33.2533   35.3728   55.1026 H   0  0  0  0  0  0  0  0  0  0  0  0
   32.1600   33.8854   56.7323 H   0  0  0  0  0  0  0  0  0  0  0  0
   31.6696   34.6975   59.0046 H   0  0  0  0  0  0  0  0  0  0  0  0
   29.8388   35.0720   63.4764 H   0  0  0  0  0  0  0  0  0  0  0  0
   31.4725   34.5528   63.9549 H   0  0  0  0  0  0  0  0  0  0  0  0
   30.5519   33.5441   66.0212 H   0  0  0  0  0  0  0  0  0  0  0  0
   29.7704   32.8549   64.5781 H   0  0  0  0  0  0  0  0  0  0  0  0
   28.0914   33.4083   66.3139 H   0  0  0  0  0  0  0  0  0  0  0  0
   27.8655   34.4185   64.8660 H   0  0  0  0  0  0  0  0  0  0  0  0
   29.3573   35.2481   67.3964 H   0  0  0  0  0  0  0  0  0  0  0  0
   27.7209   35.7774   66.9372 H   0  0  0  0  0  0  0  0  0  0  0  0
   29.4234   37.4743   66.3126 H   0  0  0  0  0  0  0  0  0  0  0  0
   28.6264   36.7997   64.8710 H   0  0  0  0  0  0  0  0  0  0  0  0
  1  2  2  0  0  0  0
  2 23  1  0  0  0  0
  2  3  1  0  0  0  0
  3  4  1  0  0  0  0
  3 24  1  0  0  0  0
  3 25  1  0  0  0  0
  4  5  1  6  0  0  0
  4  6  1  0  0  0  0
  4 17  1  0  0  0  0
  6  7  2  0  0  0  0
  6  8  1  0  0  0  0
  8  9  1  0  0  0  0
  8 26  1  0  0  0  0
  9 10  1  0  0  0  0
  9 27  1  0  0  0  0
  9 28  1  0  0  0  0
 10 11  1  0  0  0  0
 10 29  1  0  0  0  0
 10 30  1  0  0  0  0
 11 16  2  0  0  0  0
 11 12  1  0  0  0  0
 12 13  2  0  0  0  0
 12 31  1  0  0  0  0
 13 14  1  0  0  0  0
 13 32  1  0  0  0  0
 14 15  2  0  0  0  0
 14 33  1  0  0  0  0
 15 16  1  0  0  0  0
 15 34  1  0  0  0  0
 16 35  1  0  0  0  0
 17 22  1  0  0  0  0
 17 18  1  0  0  0  0
 17 23  1  0  0  0  0
 18 19  1  0  0  0  0
 18 36  1  0  0  0  0
 18 37  1  0  0  0  0
 19 20  1  0  0  0  0
 19 38  1  0  0  0  0
 19 39  1  0  0  0  0
 20 21  1  0  0  0  0
 20 40  1  0  0  0  0
 20 41  1  0  0  0  0
 21 22  1  0  0  0  0
 21 42  1  0  0  0  0
 21 43  1  0  0  0  0
 22 44  1  0  0  0  0
 22 45  1  0  0  0  0
M  END
$$$$
