ZINC000000027937      none
 OpenBabel11202420153D

 40 42  0  0  0  0  0  0  0  0999 V2000
   32.0038   33.1523   60.9859 C   0  0  0  0  0  0  0  0  0  0  0  0
   31.2652   33.5487   62.2383 C   0  0  0  0  0  0  0  0  0  0  0  0
   30.7575   32.5765   63.0786 C   0  0  0  0  0  0  0  0  0  0  0  0
   30.0746   32.9396   64.2245 C   0  0  0  0  0  0  0  0  0  0  0  0
   29.9033   34.2758   64.5360 C   0  0  0  0  0  0  0  0  0  0  0  0
   30.4147   35.2515   63.7027 C   0  0  0  0  0  0  0  0  0  0  0  0
   31.1002   34.8898   62.5519 C   0  0  0  0  0  0  0  0  0  0  0  0
   31.6043   35.8478   61.7303 O   0  0  0  0  0  0  0  0  0  0  0  0
   30.6732   36.7717   61.1634 C   0  0  0  0  0  0  0  0  0  0  0  0
   31.1779   37.2333   59.8205 C   0  0  0  0  0  0  0  0  0  0  0  0
   30.3915   37.5470   58.9522 O   0  0  0  0  0  0  0  0  0  0  0  0
   32.5034   37.2975   59.5844 N   0  0  0  0  0  0  0  0  0  0  0  0
   32.9725   37.7267   58.3361 N   0  0  0  0  0  0  0  0  0  0  0  0
   33.2723   39.0429   57.9434 N   0  0  0  0  0  0  0  0  0  0  0  0
   33.6704   38.9853   56.7186 N   0  0  0  0  0  0  0  0  0  0  0  0
   33.6568   37.7704   56.3021 N   0  0  0  0  0  0  0  0  0  0  0  0
   33.2337   36.9632   57.2496 C   0  0  0  0  0  0  0  0  0  0  0  0
   33.0884   35.5893   57.1557 N   0  0  0  0  0  0  0  0  0  0  0  0
   33.4001   34.9336   55.9610 C   0  0  0  0  0  0  0  0  0  0  0  0
   34.3900   33.9593   55.9395 C   0  0  0  0  0  0  0  0  0  0  0  0
   34.6918   33.3099   54.7588 C   0  0  0  0  0  0  0  0  0  0  0  0
   34.0171   33.6355   53.5966 C   0  0  0  0  0  0  0  0  0  0  0  0
   33.0348   34.6092   53.6133 C   0  0  0  0  0  0  0  0  0  0  0  0
   32.7246   35.2589   54.7918 C   0  0  0  0  0  0  0  0  0  0  0  0
   33.0650   33.0425   61.2093 H   0  0  0  0  0  0  0  0  0  0  0  0
   31.6104   32.2053   60.6164 H   0  0  0  0  0  0  0  0  0  0  0  0
   31.8701   33.9224   60.2262 H   0  0  0  0  0  0  0  0  0  0  0  0
   30.8901   31.5321   62.8375 H   0  0  0  0  0  0  0  0  0  0  0  0
   29.6743   32.1781   64.8775 H   0  0  0  0  0  0  0  0  0  0  0  0
   29.3697   34.5570   65.4319 H   0  0  0  0  0  0  0  0  0  0  0  0
   30.2808   36.2950   63.9464 H   0  0  0  0  0  0  0  0  0  0  0  0
   30.5648   37.6308   61.8256 H   0  0  0  0  0  0  0  0  0  0  0  0
   29.7064   36.2838   61.0400 H   0  0  0  0  0  0  0  0  0  0  0  0
   33.1324   37.0466   60.2789 H   0  0  0  0  0  0  0  0  0  0  0  0
   32.7665   35.0823   57.9174 H   0  0  0  0  0  0  0  0  0  0  0  0
   34.9206   33.7075   56.8460 H   0  0  0  0  0  0  0  0  0  0  0  0
   35.4584   32.5494   54.7420 H   0  0  0  0  0  0  0  0  0  0  0  0
   34.2585   33.1300   52.6732 H   0  0  0  0  0  0  0  0  0  0  0  0
   32.5099   34.8617   52.7038 H   0  0  0  0  0  0  0  0  0  0  0  0
   31.9576   36.0194   54.8041 H   0  0  0  0  0  0  0  0  0  0  0  0
  1  2  1  0  0  0  0
  1 25  1  0  0  0  0
  1 26  1  0  0  0  0
  1 27  1  0  0  0  0
  2  7  2  0  0  0  0
  2  3  1  0  0  0  0
  3  4  2  0  0  0  0
  3 28  1  0  0  0  0
  4  5  1  0  0  0  0
  4 29  1  0  0  0  0
  5  6  2  0  0  0  0
  5 30  1  0  0  0  0
  6  7  1  0  0  0  0
  6 31  1  0  0  0  0
  7  8  1  0  0  0  0
  8  9  1  0  0  0  0
  9 10  1  0  0  0  0
  9 32  1  0  0  0  0
  9 33  1  0  0  0  0
 10 11  2  0  0  0  0
 10 12  1  0  0  0  0
 12 13  1  0  0  0  0
 12 34  1  0  0  0  0
 13 17  1  0  0  0  0
 13 14  1  0  0  0  0
 14 15  2  0  0  0  0
 15 16  1  0  0  0  0
 16 17  2  0  0  0  0
 17 18  1  0  0  0  0
 18 19  1  0  0  0  0
 18 35  1  0  0  0  0
 19 24  2  0  0  0  0
 19 20  1  0  0  0  0
 20 21  2  0  0  0  0
 20 36  1  0  0  0  0
 21 22  1  0  0  0  0
 21 37  1  0  0  0  0
 22 23  2  0  0  0  0
 22 38  1  0  0  0  0
 23 24  1  0  0  0  0
 23 39  1  0  0  0  0
 24 40  1  0  0  0  0
M  END
$$$$
