ZINC000000039231      none
 OpenBabel11202420153D

 41 42  0  0  0  0  0  0  0  0999 V2000
   35.8121   39.3004   51.9645 C   0  0  0  0  0  0  0  0  0  0  0  0
   35.2825   39.0446   53.3770 C   0  0  0  0  0  0  0  0  0  0  0  0
   34.1027   38.2414   53.3051 O   0  0  0  0  0  0  0  0  0  0  0  0
   33.8528   37.4153   54.3572 C   0  0  0  0  0  0  0  0  0  0  0  0
   33.6829   37.9426   55.6271 C   0  0  0  0  0  0  0  0  0  0  0  0
   33.4286   37.1005   56.6995 C   0  0  0  0  0  0  0  0  0  0  0  0
   33.2568   37.6344   57.9852 N   0  0  0  0  0  0  0  0  0  0  0  0
   31.9624   37.2317   58.5542 C   0  0  0  0  0  0  0  0  0  0  0  0
   31.8420   37.7848   59.9767 C   0  0  0  0  0  0  0  0  0  0  0  0
   32.0010   39.2058   59.9453 O   0  0  0  0  0  0  0  0  0  0  0  0
   33.2511   39.6332   59.3976 C   0  0  0  0  0  0  0  0  0  0  0  0
   33.3857   39.0988   57.9693 C   0  0  0  0  0  0  0  0  0  0  0  0
   33.3446   35.7251   56.5000 C   0  0  0  0  0  0  0  0  0  0  0  0
   33.0960   34.8987   57.5523 O   0  0  0  0  0  0  0  0  0  0  0  0
   32.3915   33.6873   57.2735 C   0  0  0  0  0  0  0  0  0  0  0  0
   31.5712   33.2806   58.4993 C   0  0  0  0  0  0  0  0  0  0  0  0
   33.5196   35.1975   55.2314 C   0  0  0  0  0  0  0  0  0  0  0  0
   33.7683   36.0403   54.1576 C   0  0  0  0  0  0  0  0  0  0  0  0
   33.9402   35.5064   52.8720 N   0  0  0  0  0  0  0  0  0  0  0  0
   36.7121   39.9130   52.0193 H   0  0  0  0  0  0  0  0  0  0  0  0
   36.0484   38.3494   51.4873 H   0  0  0  0  0  0  0  0  0  0  0  0
   35.0531   39.8211   51.3807 H   0  0  0  0  0  0  0  0  0  0  0  0
   35.0461   39.9956   53.8542 H   0  0  0  0  0  0  0  0  0  0  0  0
   36.0415   38.5237   53.9608 H   0  0  0  0  0  0  0  0  0  0  0  0
   33.7489   39.0094   55.7820 H   0  0  0  0  0  0  0  0  0  0  0  0
   31.1550   37.6295   57.9394 H   0  0  0  0  0  0  0  0  0  0  0  0
   31.8989   36.1438   58.5801 H   0  0  0  0  0  0  0  0  0  0  0  0
   32.6171   37.3457   60.6048 H   0  0  0  0  0  0  0  0  0  0  0  0
   30.8611   37.5372   60.3825 H   0  0  0  0  0  0  0  0  0  0  0  0
   34.0671   39.2478   60.0088 H   0  0  0  0  0  0  0  0  0  0  0  0
   33.2897   40.7224   59.3838 H   0  0  0  0  0  0  0  0  0  0  0  0
   34.3611   39.3739   57.5681 H   0  0  0  0  0  0  0  0  0  0  0  0
   32.6015   39.5265   57.3445 H   0  0  0  0  0  0  0  0  0  0  0  0
   33.1052   32.8984   57.0361 H   0  0  0  0  0  0  0  0  0  0  0  0
   31.7248   33.8416   56.4251 H   0  0  0  0  0  0  0  0  0  0  0  0
   30.8575   34.0695   58.7370 H   0  0  0  0  0  0  0  0  0  0  0  0
   32.2379   33.1263   59.3478 H   0  0  0  0  0  0  0  0  0  0  0  0
   31.0338   32.3564   58.2867 H   0  0  0  0  0  0  0  0  0  0  0  0
   33.4585   34.1302   55.0773 H   0  0  0  0  0  0  0  0  0  0  0  0
   34.1181   36.0952   52.1220 H   0  0  0  0  0  0  0  0  0  0  0  0
   33.8813   34.5482   52.7328 H   0  0  0  0  0  0  0  0  0  0  0  0
  1  2  1  0  0  0  0
  1 20  1  0  0  0  0
  1 21  1  0  0  0  0
  1 22  1  0  0  0  0
  2  3  1  0  0  0  0
  2 23  1  0  0  0  0
  2 24  1  0  0  0  0
  3  4  1  0  0  0  0
  4 18  2  0  0  0  0
  4  5  1  0  0  0  0
  5  6  2  0  0  0  0
  5 25  1  0  0  0  0
  6  7  1  0  0  0  0
  6 13  1  0  0  0  0
  7 12  1  0  0  0  0
  7  8  1  0  0  0  0
  8  9  1  0  0  0  0
  8 26  1  0  0  0  0
  8 27  1  0  0  0  0
  9 10  1  0  0  0  0
  9 28  1  0  0  0  0
  9 29  1  0  0  0  0
 10 11  1  0  0  0  0
 11 12  1  0  0  0  0
 11 30  1  0  0  0  0
 11 31  1  0  0  0  0
 12 32  1  0  0  0  0
 12 33  1  0  0  0  0
 13 14  1  0  0  0  0
 13 17  2  0  0  0  0
 14 15  1  0  0  0  0
 15 16  1  0  0  0  0
 15 34  1  0  0  0  0
 15 35  1  0  0  0  0
 16 36  1  0  0  0  0
 16 37  1  0  0  0  0
 16 38  1  0  0  0  0
 17 18  1  0  0  0  0
 17 39  1  0  0  0  0
 18 19  1  0  0  0  0
 19 40  1  0  0  0  0
 19 41  1  0  0  0  0
M  END
$$$$
