ZINC000000026684      none
 OpenBabel11202420153D

 41 44  0  0  0  0  0  0  0  0999 V2000
   32.9495   32.9006   56.9741 N   0  0  0  0  0  0  0  0  0  0  0  0
   32.8654   33.9802   57.3174 C   0  0  0  0  0  0  0  0  0  0  0  0
   32.7592   35.3412   57.7502 C   0  0  0  0  0  0  0  0  0  0  0  0
   32.2136   35.6630   59.0039 C   0  0  0  0  0  0  0  0  0  0  0  0
   31.7669   34.6723   59.8434 N   0  0  0  0  0  0  0  0  0  0  0  0
   30.3383   34.7068   59.9648 C   0  0  0  0  0  0  0  0  0  0  0  0
   29.7948   36.1088   60.0700 C   0  0  0  0  0  0  0  0  0  0  0  0
   30.2469   36.8139   61.3358 C   0  0  0  0  0  0  0  0  0  0  0  0
   29.1903   37.5755   61.8778 C   0  0  0  0  0  0  0  0  0  0  0  0
   29.3440   38.3103   63.0258 C   0  0  0  0  0  0  0  0  0  0  0  0
   30.5712   38.3069   63.6643 C   0  0  0  0  0  0  0  0  0  0  0  0
   31.5926   37.5594   63.1360 C   0  0  0  0  0  0  0  0  0  0  0  0
   31.4284   36.8057   61.9549 C   0  0  0  0  0  0  0  0  0  0  0  0
   32.7186   36.0886   61.6019 C   0  0  0  0  0  0  0  0  0  0  0  0
   32.4805   34.6920   61.0872 C   0  0  0  0  0  0  0  0  0  0  0  0
   32.1298   36.9461   59.3667 N   0  0  0  0  0  0  0  0  0  0  0  0
   32.5496   37.9203   58.5942 C   0  0  0  0  0  0  0  0  0  0  0  0
   33.0798   37.6784   57.3789 N   0  0  0  0  0  0  0  0  0  0  0  0
   33.2013   36.4063   56.9284 C   0  0  0  0  0  0  0  0  0  0  0  0
   33.6845   36.1820   55.8321 O   0  0  0  0  0  0  0  0  0  0  0  0
   33.4593   38.9330   56.7067 C   0  0  0  0  0  0  0  0  0  0  0  0
   33.5139   39.9994   57.8205 C   0  0  0  0  0  0  0  0  0  0  0  0
   32.5328   39.4155   58.8604 C   0  0  0  0  0  0  0  0  0  0  0  0
   30.0475   34.1493   60.8551 H   0  0  0  0  0  0  0  0  0  0  0  0
   29.9009   34.2249   59.0903 H   0  0  0  0  0  0  0  0  0  0  0  0
   28.7057   36.0664   60.0599 H   0  0  0  0  0  0  0  0  0  0  0  0
   30.1314   36.6831   59.2070 H   0  0  0  0  0  0  0  0  0  0  0  0
   28.2342   37.5798   61.3754 H   0  0  0  0  0  0  0  0  0  0  0  0
   28.5209   38.8861   63.4226 H   0  0  0  0  0  0  0  0  0  0  0  0
   30.7211   38.8802   64.5673 H   0  0  0  0  0  0  0  0  0  0  0  0
   32.5504   37.5515   63.6353 H   0  0  0  0  0  0  0  0  0  0  0  0
   33.3466   36.0344   62.4911 H   0  0  0  0  0  0  0  0  0  0  0  0
   33.2427   36.6615   60.8370 H   0  0  0  0  0  0  0  0  0  0  0  0
   31.9079   34.1366   61.8300 H   0  0  0  0  0  0  0  0  0  0  0  0
   33.4429   34.1996   60.9483 H   0  0  0  0  0  0  0  0  0  0  0  0
   34.4374   38.8281   56.2372 H   0  0  0  0  0  0  0  0  0  0  0  0
   32.7103   39.2035   55.9625 H   0  0  0  0  0  0  0  0  0  0  0  0
   34.5190   40.0804   58.2345 H   0  0  0  0  0  0  0  0  0  0  0  0
   33.1660   40.9650   57.4538 H   0  0  0  0  0  0  0  0  0  0  0  0
   32.8797   39.6264   59.8720 H   0  0  0  0  0  0  0  0  0  0  0  0
   31.5321   39.8203   58.7095 H   0  0  0  0  0  0  0  0  0  0  0  0
  1  2  3  0  0  0  0
  2  3  1  0  0  0  0
  3 19  1  0  0  0  0
  3  4  2  0  0  0  0
  4  5  1  0  0  0  0
  4 16  1  0  0  0  0
  5 15  1  0  0  0  0
  5  6  1  0  0  0  0
  6  7  1  0  0  0  0
  6 24  1  0  0  0  0
  6 25  1  0  0  0  0
  7  8  1  0  0  0  0
  7 26  1  0  0  0  0
  7 27  1  0  0  0  0
  8 13  2  0  0  0  0
  8  9  1  0  0  0  0
  9 10  2  0  0  0  0
  9 28  1  0  0  0  0
 10 11  1  0  0  0  0
 10 29  1  0  0  0  0
 11 12  2  0  0  0  0
 11 30  1  0  0  0  0
 12 13  1  0  0  0  0
 12 31  1  0  0  0  0
 13 14  1  0  0  0  0
 14 15  1  0  0  0  0
 14 32  1  0  0  0  0
 14 33  1  0  0  0  0
 15 34  1  0  0  0  0
 15 35  1  0  0  0  0
 16 17  2  0  0  0  0
 17 23  1  0  0  0  0
 17 18  1  0  0  0  0
 18 19  1  0  0  0  0
 18 21  1  0  0  0  0
 19 20  2  0  0  0  0
 21 22  1  0  0  0  0
 21 36  1  0  0  0  0
 21 37  1  0  0  0  0
 22 23  1  0  0  0  0
 22 38  1  0  0  0  0
 22 39  1  0  0  0  0
 23 40  1  0  0  0  0
 23 41  1  0  0  0  0
M  END
$$$$
