ZINC000000004355      none
 OpenBabel11202420153D

 28 30  0  0  1  0  0  0  0  0999 V2000
   34.3503   40.0108   66.6518 N   0  0  0  0  0  0  0  0  0  0  0  0
   33.2815   39.3779   67.1745 C   0  0  0  0  0  0  0  0  0  0  0  0
   32.8475   39.7125   68.2604 O   0  0  0  0  0  0  0  0  0  0  0  0
   32.6387   38.2812   66.4310 C   0  0  0  0  0  0  0  0  0  0  0  0
   32.9660   36.8584   66.5080 C   0  0  0  0  0  0  0  0  0  0  0  0
   32.1342   36.2366   65.6645 C   0  0  0  0  0  0  0  0  0  0  0  0
   31.3084   37.1716   65.0627 N   0  0  0  0  0  0  0  0  0  0  0  0
   31.6049   38.3902   65.5194 C   0  0  0  0  0  0  0  0  0  0  0  0
   30.7758   39.5419   64.9581 C   0  0  0  0  0  0  0  0  0  0  0  0
   29.3334   38.6725   64.2314 S   0  0  0  0  0  0  0  0  0  0  0  0
   30.2166   37.0758   64.0587 C   0  0  1  0  0  0  0  0  0  0  0  0
   29.5546   36.2415   64.2905 H   0  0  0  0  0  0  0  0  0  0  0  0
   30.7840   36.9309   62.6702 C   0  0  0  0  0  0  0  0  0  0  0  0
   30.0853   36.2346   61.6954 C   0  0  0  0  0  0  0  0  0  0  0  0
   30.6434   36.1312   60.4307 C   0  0  0  0  0  0  0  0  0  0  0  0
   31.8744   36.7114   60.1882 C   0  0  0  0  0  0  0  0  0  0  0  0
   32.5106   37.3661   61.1396 N   0  0  0  0  0  0  0  0  0  0  0  0
   32.0072   37.4895   62.3524 C   0  0  0  0  0  0  0  0  0  0  0  0
   34.6963   39.7440   65.7858 H   0  0  0  0  0  0  0  0  0  0  0  0
   34.7736   40.7331   67.1416 H   0  0  0  0  0  0  0  0  0  0  0  0
   33.7266   36.4010   67.1232 H   0  0  0  0  0  0  0  0  0  0  0  0
   32.1107   35.1725   65.4813 H   0  0  0  0  0  0  0  0  0  0  0  0
   30.4606   40.2163   65.7544 H   0  0  0  0  0  0  0  0  0  0  0  0
   31.3322   40.0826   64.1925 H   0  0  0  0  0  0  0  0  0  0  0  0
   29.1273   35.7871   61.9151 H   0  0  0  0  0  0  0  0  0  0  0  0
   30.1251   35.6003   59.6459 H   0  0  0  0  0  0  0  0  0  0  0  0
   32.3183   36.6313   59.2068 H   0  0  0  0  0  0  0  0  0  0  0  0
   32.5575   38.0333   63.1059 H   0  0  0  0  0  0  0  0  0  0  0  0
  1  2  1  0  0  0  0
  1 19  1  0  0  0  0
  1 20  1  0  0  0  0
  2  3  2  0  0  0  0
  2  4  1  0  0  0  0
  4  8  2  0  0  0  0
  4  5  1  0  0  0  0
  5  6  2  0  0  0  0
  5 21  1  0  0  0  0
  6  7  1  0  0  0  0
  6 22  1  0  0  0  0
  7 11  1  0  0  0  0
  7  8  1  0  0  0  0
  8  9  1  0  0  0  0
  9 10  1  0  0  0  0
  9 23  1  0  0  0  0
  9 24  1  0  0  0  0
 10 11  1  0  0  0  0
 11 12  1  1  0  0  0
 11 13  1  0  0  0  0
 13 18  2  0  0  0  0
 13 14  1  0  0  0  0
 14 15  2  0  0  0  0
 14 25  1  0  0  0  0
 15 16  1  0  0  0  0
 15 26  1  0  0  0  0
 16 17  2  0  0  0  0
 16 27  1  0  0  0  0
 17 18  1  0  0  0  0
 18 28  1  0  0  0  0
M  END
$$$$
