ZINC000000034263      none
 OpenBabel11202420153D

 26 27  0  0  0  0  0  0  0  0999 V2000
   35.0647   38.9230   52.7741 C   0  0  0  0  0  0  0  0  0  0  0  0
   35.2278   37.4021   52.8038 C   0  0  0  0  0  0  0  0  0  0  0  0
   34.0086   36.7941   53.3058 O   0  0  0  0  0  0  0  0  0  0  0  0
   34.1106   36.0553   54.4219 C   0  0  0  0  0  0  0  0  0  0  0  0
   35.1834   35.9212   54.9614 O   0  0  0  0  0  0  0  0  0  0  0  0
   32.8874   35.3934   55.0018 C   0  0  0  0  0  0  0  0  0  0  0  0
   33.0689   35.2577   56.7975 S   0  0  0  0  0  0  0  0  0  0  0  0
   33.2286   36.9613   57.2184 C   0  0  0  0  0  0  0  0  0  0  0  0
   33.7722   37.8249   56.3655 N   0  0  0  0  0  0  0  0  0  0  0  0
   33.8953   39.1031   56.6724 C   0  0  0  0  0  0  0  0  0  0  0  0
   33.4937   39.5949   57.8257 N   0  0  0  0  0  0  0  0  0  0  0  0
   32.9382   38.8080   58.7416 C   0  0  0  0  0  0  0  0  0  0  0  0
   32.4292   38.9975   60.0015 N   0  0  0  0  0  0  0  0  0  0  0  0
   32.3887   39.8381   60.4838 H   0  0  0  0  0  0  0  0  0  0  0  0
   31.9907   37.7876   60.4512 C   0  0  0  0  0  0  0  0  0  0  0  0
   32.1999   36.8749   59.5471 N   0  0  0  0  0  0  0  0  0  0  0  0
   32.7840   37.4395   58.4633 C   0  0  0  0  0  0  0  0  0  0  0  0
   35.9799   39.3795   52.3973 H   0  0  0  0  0  0  0  0  0  0  0  0
   34.2320   39.1865   52.1219 H   0  0  0  0  0  0  0  0  0  0  0  0
   34.8656   39.2869   53.7822 H   0  0  0  0  0  0  0  0  0  0  0  0
   36.0605   37.1387   53.4561 H   0  0  0  0  0  0  0  0  0  0  0  0
   35.4268   37.0383   51.7957 H   0  0  0  0  0  0  0  0  0  0  0  0
   32.7744   34.3982   54.5719 H   0  0  0  0  0  0  0  0  0  0  0  0
   32.0062   35.9915   54.7698 H   0  0  0  0  0  0  0  0  0  0  0  0
   34.3426   39.7702   55.9503 H   0  0  0  0  0  0  0  0  0  0  0  0
   31.5363   37.6123   61.4151 H   0  0  0  0  0  0  0  0  0  0  0  0
  1  2  1  0  0  0  0
  1 18  1  0  0  0  0
  1 19  1  0  0  0  0
  1 20  1  0  0  0  0
  2  3  1  0  0  0  0
  2 21  1  0  0  0  0
  2 22  1  0  0  0  0
  3  4  1  0  0  0  0
  4  5  2  0  0  0  0
  4  6  1  0  0  0  0
  6  7  1  0  0  0  0
  6 23  1  0  0  0  0
  6 24  1  0  0  0  0
  7  8  1  0  0  0  0
  8 17  2  0  0  0  0
  8  9  1  0  0  0  0
  9 10  2  0  0  0  0
 10 11  1  0  0  0  0
 10 25  1  0  0  0  0
 11 12  2  0  0  0  0
 12 17  1  0  0  0  0
 12 13  1  0  0  0  0
 13 14  1  0  0  0  0
 13 15  1  0  0  0  0
 15 16  2  0  0  0  0
 15 26  1  0  0  0  0
 16 17  1  0  0  0  0
M  END
$$$$
