ZINC000000052150      none
 OpenBabel11202420153D

 46 48  0  0  0  0  0  0  0  0999 V2000
   33.4833   33.4000   53.0048 C   0  0  0  0  0  0  0  0  0  0  0  0
   34.0902   33.2311   54.3992 C   0  0  0  0  0  0  0  0  0  0  0  0
   33.1315   33.6640   55.4001 O   0  0  0  0  0  0  0  0  0  0  0  0
   33.1705   34.9614   55.7642 C   0  0  0  0  0  0  0  0  0  0  0  0
   33.5330   35.8055   54.9678 O   0  0  0  0  0  0  0  0  0  0  0  0
   32.7751   35.3553   57.1235 C   0  0  0  0  0  0  0  0  0  0  0  0
   32.8113   36.6799   57.5080 C   0  0  0  0  0  0  0  0  0  0  0  0
   32.4591   37.0752   58.7385 N   0  0  0  0  0  0  0  0  0  0  0  0
   32.5277   38.5019   59.0636 C   0  0  0  0  0  0  0  0  0  0  0  0
   33.0206   39.2802   57.8419 C   0  0  0  0  0  0  0  0  0  0  0  0
   32.0341   36.1956   59.7120 C   0  0  0  0  0  0  0  0  0  0  0  0
   31.6789   36.6582   60.9738 C   0  0  0  0  0  0  0  0  0  0  0  0
   31.2535   35.7626   61.9412 C   0  0  0  0  0  0  0  0  0  0  0  0
   30.8980   36.2279   63.2048 N   0  0  0  0  0  0  0  0  0  0  0  0
   31.7980   35.6915   64.2362 C   0  0  0  0  0  0  0  0  0  0  0  0
   31.4097   36.2737   65.5978 C   0  0  0  0  0  0  0  0  0  0  0  0
   30.0378   35.9715   65.8661 O   0  0  0  0  0  0  0  0  0  0  0  0
   29.1332   36.4795   64.8817 C   0  0  0  0  0  0  0  0  0  0  0  0
   29.4986   35.8995   63.5129 C   0  0  0  0  0  0  0  0  0  0  0  0
   31.1719   34.3965   61.6573 C   0  0  0  0  0  0  0  0  0  0  0  0
   30.7490   33.5360   62.6090 F   0  0  0  0  0  0  0  0  0  0  0  0
   31.5235   33.9266   60.4240 C   0  0  0  0  0  0  0  0  0  0  0  0
   31.9549   34.8181   59.4382 C   0  0  0  0  0  0  0  0  0  0  0  0
   32.3343   34.3428   58.0974 C   0  0  0  0  0  0  0  0  0  0  0  0
   32.2852   33.1602   57.8055 O   0  0  0  0  0  0  0  0  0  0  0  0
   34.2030   33.0751   52.2535 H   0  0  0  0  0  0  0  0  0  0  0  0
   32.5789   32.7966   52.9267 H   0  0  0  0  0  0  0  0  0  0  0  0
   33.2355   34.4488   52.8412 H   0  0  0  0  0  0  0  0  0  0  0  0
   34.9946   33.8346   54.4773 H   0  0  0  0  0  0  0  0  0  0  0  0
   34.3380   32.1824   54.5629 H   0  0  0  0  0  0  0  0  0  0  0  0
   33.1347   37.4224   56.7936 H   0  0  0  0  0  0  0  0  0  0  0  0
   31.5371   38.8583   59.3460 H   0  0  0  0  0  0  0  0  0  0  0  0
   33.2183   38.6528   59.8933 H   0  0  0  0  0  0  0  0  0  0  0  0
   34.0112   38.9240   57.5595 H   0  0  0  0  0  0  0  0  0  0  0  0
   32.3299   39.1294   57.0122 H   0  0  0  0  0  0  0  0  0  0  0  0
   33.0716   40.3419   58.0838 H   0  0  0  0  0  0  0  0  0  0  0  0
   31.7341   37.7129   61.1993 H   0  0  0  0  0  0  0  0  0  0  0  0
   31.7108   34.6053   64.2664 H   0  0  0  0  0  0  0  0  0  0  0  0
   32.8260   35.9681   64.0018 H   0  0  0  0  0  0  0  0  0  0  0  0
   31.5484   37.3547   65.5843 H   0  0  0  0  0  0  0  0  0  0  0  0
   32.0374   35.8353   66.3735 H   0  0  0  0  0  0  0  0  0  0  0  0
   29.2057   37.5666   64.8473 H   0  0  0  0  0  0  0  0  0  0  0  0
   28.1142   36.1907   65.1393 H   0  0  0  0  0  0  0  0  0  0  0  0
   28.8479   36.3279   62.7505 H   0  0  0  0  0  0  0  0  0  0  0  0
   29.3744   34.8166   63.5315 H   0  0  0  0  0  0  0  0  0  0  0  0
   31.4640   32.8697   60.2098 H   0  0  0  0  0  0  0  0  0  0  0  0
  1  2  1  0  0  0  0
  1 26  1  0  0  0  0
  1 27  1  0  0  0  0
  1 28  1  0  0  0  0
  2  3  1  0  0  0  0
  2 29  1  0  0  0  0
  2 30  1  0  0  0  0
  3  4  1  0  0  0  0
  4  5  2  0  0  0  0
  4  6  1  0  0  0  0
  6 24  1  0  0  0  0
  6  7  2  0  0  0  0
  7  8  1  0  0  0  0
  7 31  1  0  0  0  0
  8  9  1  0  0  0  0
  8 11  1  0  0  0  0
  9 10  1  0  0  0  0
  9 32  1  0  0  0  0
  9 33  1  0  0  0  0
 10 34  1  0  0  0  0
 10 35  1  0  0  0  0
 10 36  1  0  0  0  0
 11 23  2  0  0  0  0
 11 12  1  0  0  0  0
 12 13  2  0  0  0  0
 12 37  1  0  0  0  0
 13 14  1  0  0  0  0
 13 20  1  0  0  0  0
 14 19  1  0  0  0  0
 14 15  1  0  0  0  0
 15 16  1  0  0  0  0
 15 38  1  0  0  0  0
 15 39  1  0  0  0  0
 16 17  1  0  0  0  0
 16 40  1  0  0  0  0
 16 41  1  0  0  0  0
 17 18  1  0  0  0  0
 18 19  1  0  0  0  0
 18 42  1  0  0  0  0
 18 43  1  0  0  0  0
 19 44  1  0  0  0  0
 19 45  1  0  0  0  0
 20 21  1  0  0  0  0
 20 22  2  0  0  0  0
 22 23  1  0  0  0  0
 22 46  1  0  0  0  0
 23 24  1  0  0  0  0
 24 25  2  0  0  0  0
M  END
$$$$
