ZINC000000035780      none
 OpenBabel11202420153D

 36 37  0  0  0  0  0  0  0  0999 V2000
   32.9618   39.7756   56.8514 C   0  0  0  0  0  0  0  0  0  0  0  0
   33.6587   38.8477   57.6853 O   0  0  0  0  0  0  0  0  0  0  0  0
   33.2506   37.5547   57.6429 C   0  0  0  0  0  0  0  0  0  0  0  0
   33.8187   36.6785   56.7243 C   0  0  0  0  0  0  0  0  0  0  0  0
   33.4169   35.3738   56.6789 C   0  0  0  0  0  0  0  0  0  0  0  0
   32.4263   34.9150   57.5560 C   0  0  0  0  0  0  0  0  0  0  0  0
   31.9927   33.5127   57.5092 C   0  0  0  0  0  0  0  0  0  0  0  0
   30.8560   33.2189   57.8140 O   0  0  0  0  0  0  0  0  0  0  0  0
   31.8502   35.7982   58.4776 C   0  0  0  0  0  0  0  0  0  0  0  0
   32.2619   37.1112   58.5148 C   0  0  0  0  0  0  0  0  0  0  0  0
   31.6458   38.0663   59.5043 C   0  0  0  0  0  0  0  0  0  0  0  0
   31.5593   37.4212   60.8168 N   0  0  0  0  0  0  0  0  0  0  0  0
   32.5376   37.4570   61.8187 N   0  0  0  0  0  0  0  0  0  0  0  0
   32.1008   36.7675   62.8413 C   0  0  0  0  0  0  0  0  0  0  0  0
   32.8376   36.5459   64.1371 C   0  0  0  0  0  0  0  0  0  0  0  0
   30.8322   36.2715   62.5240 C   0  0  0  0  0  0  0  0  0  0  0  0
   29.9786   35.4383   63.4005 N   0  0  0  0  0  0  0  0  0  0  0  0
   30.3680   35.1262   64.5116 O   0  0  0  0  0  0  0  0  0  0  0  0
   28.8867   35.0648   63.0106 O   0  0  0  0  0  0  0  0  0  0  0  0
   30.5206   36.6926   61.2764 C   0  0  0  0  0  0  0  0  0  0  0  0
   29.2439   36.3975   60.5319 C   0  0  0  0  0  0  0  0  0  0  0  0
   33.3869   40.7709   56.9809 H   0  0  0  0  0  0  0  0  0  0  0  0
   33.0594   39.4716   55.8091 H   0  0  0  0  0  0  0  0  0  0  0  0
   31.9076   39.7920   57.1278 H   0  0  0  0  0  0  0  0  0  0  0  0
   34.5834   37.0298   56.0473 H   0  0  0  0  0  0  0  0  0  0  0  0
   33.8636   34.6958   55.9667 H   0  0  0  0  0  0  0  0  0  0  0  0
   32.6857   32.7430   57.2033 H   0  0  0  0  0  0  0  0  0  0  0  0
   31.0861   35.4503   59.1568 H   0  0  0  0  0  0  0  0  0  0  0  0
   32.2642   38.9607   59.5792 H   0  0  0  0  0  0  0  0  0  0  0  0
   30.6462   38.3425   59.1686 H   0  0  0  0  0  0  0  0  0  0  0  0
   32.5860   37.3411   64.8388 H   0  0  0  0  0  0  0  0  0  0  0  0
   32.5483   35.5836   64.5596 H   0  0  0  0  0  0  0  0  0  0  0  0
   33.9114   36.5525   63.9503 H   0  0  0  0  0  0  0  0  0  0  0  0
   29.3603   35.4756   59.9622 H   0  0  0  0  0  0  0  0  0  0  0  0
   28.4262   36.2840   61.2437 H   0  0  0  0  0  0  0  0  0  0  0  0
   29.0218   37.2195   59.8515 H   0  0  0  0  0  0  0  0  0  0  0  0
  1  2  1  0  0  0  0
  1 22  1  0  0  0  0
  1 23  1  0  0  0  0
  1 24  1  0  0  0  0
  2  3  1  0  0  0  0
  3 10  2  0  0  0  0
  3  4  1  0  0  0  0
  4  5  2  0  0  0  0
  4 25  1  0  0  0  0
  5  6  1  0  0  0  0
  5 26  1  0  0  0  0
  6  7  1  0  0  0  0
  6  9  2  0  0  0  0
  7  8  2  0  0  0  0
  7 27  1  0  0  0  0
  9 10  1  0  0  0  0
  9 28  1  0  0  0  0
 10 11  1  0  0  0  0
 11 12  1  0  0  0  0
 11 29  1  0  0  0  0
 11 30  1  0  0  0  0
 12 20  1  0  0  0  0
 12 13  1  0  0  0  0
 13 14  2  0  0  0  0
 14 15  1  0  0  0  0
 14 16  1  0  0  0  0
 15 31  1  0  0  0  0
 15 32  1  0  0  0  0
 15 33  1  0  0  0  0
 16 17  1  0  0  0  0
 16 20  2  0  0  0  0
 17 18  2  0  0  0  0
 17 19  2  0  0  0  0
 20 21  1  0  0  0  0
 21 34  1  0  0  0  0
 21 35  1  0  0  0  0
 21 36  1  0  0  0  0
M  END
$$$$
