ZINC000000030916      none
 OpenBabel11202420163D

 40 42  0  0  1  0  0  0  0  0999 V2000
   28.5576   37.4992   62.8177 C   0  0  0  0  0  0  0  0  0  0  0  0
   29.7982   37.3010   61.9444 C   0  0  1  0  0  0  0  0  0  0  0  0
   29.5913   37.6532   60.9339 H   0  0  0  0  0  0  0  0  0  0  0  0
   30.8900   38.0420   62.4929 O   0  0  0  0  0  0  0  0  0  0  0  0
   30.9008   38.2185   63.8404 C   0  0  0  0  0  0  0  0  0  0  0  0
   30.9359   37.1185   64.6850 C   0  0  0  0  0  0  0  0  0  0  0  0
   30.9522   37.3006   66.0543 C   0  0  0  0  0  0  0  0  0  0  0  0
   30.9229   38.5777   66.5833 C   0  0  0  0  0  0  0  0  0  0  0  0
   30.8822   39.6756   65.7439 C   0  0  0  0  0  0  0  0  0  0  0  0
   30.8710   39.4988   64.3738 C   0  0  0  0  0  0  0  0  0  0  0  0
   30.1549   35.8374   61.9033 C   0  0  0  0  0  0  0  0  0  0  0  0
   29.4829   35.0320   62.5123 O   0  0  0  0  0  0  0  0  0  0  0  0
   31.2206   35.4234   61.1896 N   0  0  0  0  0  0  0  0  0  0  0  0
   31.5960   34.0011   61.1293 C   0  0  0  0  0  0  0  0  0  0  0  0
   31.4393   33.5343   59.6830 C   0  0  0  0  0  0  0  0  0  0  0  0
   32.0806   34.5103   58.7321 C   0  0  0  0  0  0  0  0  0  0  0  0
   32.3974   34.0548   57.4578 C   0  0  0  0  0  0  0  0  0  0  0  0
   32.9777   34.8994   56.5348 C   0  0  0  0  0  0  0  0  0  0  0  0
   33.2388   36.2140   56.8745 C   0  0  0  0  0  0  0  0  0  0  0  0
   32.9254   36.6689   58.1387 C   0  0  0  0  0  0  0  0  0  0  0  0
   32.3493   35.8171   59.0715 C   0  0  0  0  0  0  0  0  0  0  0  0
   32.0533   36.3718   60.4423 C   0  0  0  0  0  0  0  0  0  0  0  0
   27.7509   36.8636   62.4523 H   0  0  0  0  0  0  0  0  0  0  0  0
   28.7921   37.2324   63.8481 H   0  0  0  0  0  0  0  0  0  0  0  0
   28.2458   38.5427   62.7744 H   0  0  0  0  0  0  0  0  0  0  0  0
   30.9547   36.1206   64.2723 H   0  0  0  0  0  0  0  0  0  0  0  0
   30.9832   36.4448   66.7122 H   0  0  0  0  0  0  0  0  0  0  0  0
   30.9314   38.7181   67.6541 H   0  0  0  0  0  0  0  0  0  0  0  0
   30.8586   40.6721   66.1595 H   0  0  0  0  0  0  0  0  0  0  0  0
   30.8387   40.3567   63.7184 H   0  0  0  0  0  0  0  0  0  0  0  0
   30.9408   33.4191   61.7775 H   0  0  0  0  0  0  0  0  0  0  0  0
   32.6318   33.8794   61.4459 H   0  0  0  0  0  0  0  0  0  0  0  0
   30.3786   33.4482   59.4470 H   0  0  0  0  0  0  0  0  0  0  0  0
   31.9122   32.5590   59.5686 H   0  0  0  0  0  0  0  0  0  0  0  0
   32.1904   33.0295   57.1890 H   0  0  0  0  0  0  0  0  0  0  0  0
   33.2233   34.5363   55.5479 H   0  0  0  0  0  0  0  0  0  0  0  0
   33.6861   36.8819   56.1532 H   0  0  0  0  0  0  0  0  0  0  0  0
   33.1294   37.6956   58.4046 H   0  0  0  0  0  0  0  0  0  0  0  0
   32.9888   36.5335   60.9778 H   0  0  0  0  0  0  0  0  0  0  0  0
   31.5241   37.3197   60.3435 H   0  0  0  0  0  0  0  0  0  0  0  0
  1  2  1  0  0  0  0
  1 23  1  0  0  0  0
  1 24  1  0  0  0  0
  1 25  1  0  0  0  0
  2  3  1  6  0  0  0
  2  4  1  0  0  0  0
  2 11  1  0  0  0  0
  4  5  1  0  0  0  0
  5 10  2  0  0  0  0
  5  6  1  0  0  0  0
  6  7  2  0  0  0  0
  6 26  1  0  0  0  0
  7  8  1  0  0  0  0
  7 27  1  0  0  0  0
  8  9  2  0  0  0  0
  8 28  1  0  0  0  0
  9 10  1  0  0  0  0
  9 29  1  0  0  0  0
 10 30  1  0  0  0  0
 11 12  2  0  0  0  0
 11 13  1  0  0  0  0
 13 22  1  0  0  0  0
 13 14  1  0  0  0  0
 14 15  1  0  0  0  0
 14 31  1  0  0  0  0
 14 32  1  0  0  0  0
 15 16  1  0  0  0  0
 15 33  1  0  0  0  0
 15 34  1  0  0  0  0
 16 21  2  0  0  0  0
 16 17  1  0  0  0  0
 17 18  2  0  0  0  0
 17 35  1  0  0  0  0
 18 19  1  0  0  0  0
 18 36  1  0  0  0  0
 19 20  2  0  0  0  0
 19 37  1  0  0  0  0
 20 21  1  0  0  0  0
 20 38  1  0  0  0  0
 21 22  1  0  0  0  0
 22 39  1  0  0  0  0
 22 40  1  0  0  0  0
M  END
$$$$
