ZINC000000056687      none
 OpenBabel11202420153D

 30 31  0  0  0  0  0  0  0  0999 V2000
   30.1642   38.9447   63.4610 C   0  0  0  0  0  0  0  0  0  0  0  0
   30.5416   38.7116   62.0785 O   0  0  0  0  0  0  0  0  0  0  0  0
   31.6250   37.9407   61.8616 C   0  0  0  0  0  0  0  0  0  0  0  0
   32.2378   37.4759   62.8021 O   0  0  0  0  0  0  0  0  0  0  0  0
   32.0675   37.6607   60.4813 C   0  0  0  0  0  0  0  0  0  0  0  0
   32.4319   38.6992   59.6461 C   0  0  0  0  0  0  0  0  0  0  0  0
   32.8474   38.4288   58.3314 C   0  0  0  0  0  0  0  0  0  0  0  0
   33.2162   39.4780   57.4702 C   0  0  0  0  0  0  0  0  0  0  0  0
   33.6226   39.2006   56.2008 C   0  0  0  0  0  0  0  0  0  0  0  0
   33.6790   37.8880   55.7376 C   0  0  0  0  0  0  0  0  0  0  0  0
   33.3298   36.8465   56.5420 C   0  0  0  0  0  0  0  0  0  0  0  0
   32.9052   37.0927   57.8602 C   0  0  0  0  0  0  0  0  0  0  0  0
   32.5422   36.0279   58.7021 C   0  0  0  0  0  0  0  0  0  0  0  0
   32.1271   36.2822   59.9952 C   0  0  0  0  0  0  0  0  0  0  0  0
   31.7443   35.1666   60.8830 C   0  0  0  0  0  0  0  0  0  0  0  0
   30.6216   35.1150   61.3442 O   0  0  0  0  0  0  0  0  0  0  0  0
   32.6401   34.2056   61.1818 O   0  0  0  0  0  0  0  0  0  0  0  0
   32.1946   33.1392   62.0607 C   0  0  0  0  0  0  0  0  0  0  0  0
   29.2784   39.5789   63.4940 H   0  0  0  0  0  0  0  0  0  0  0  0
   29.9473   37.9920   63.9440 H   0  0  0  0  0  0  0  0  0  0  0  0
   30.9841   39.4383   63.9831 H   0  0  0  0  0  0  0  0  0  0  0  0
   32.3897   39.7184   60.0009 H   0  0  0  0  0  0  0  0  0  0  0  0
   33.1770   40.5008   57.8149 H   0  0  0  0  0  0  0  0  0  0  0  0
   33.9055   40.0096   55.5435 H   0  0  0  0  0  0  0  0  0  0  0  0
   34.0045   37.6938   54.7264 H   0  0  0  0  0  0  0  0  0  0  0  0
   33.3793   35.8341   56.1691 H   0  0  0  0  0  0  0  0  0  0  0  0
   32.5880   35.0119   58.3390 H   0  0  0  0  0  0  0  0  0  0  0  0
   31.8877   33.5614   63.0178 H   0  0  0  0  0  0  0  0  0  0  0  0
   31.3507   32.6214   61.6049 H   0  0  0  0  0  0  0  0  0  0  0  0
   33.0106   32.4343   62.2196 H   0  0  0  0  0  0  0  0  0  0  0  0
  1  2  1  0  0  0  0
  1 19  1  0  0  0  0
  1 20  1  0  0  0  0
  1 21  1  0  0  0  0
  2  3  1  0  0  0  0
  3  4  2  0  0  0  0
  3  5  1  0  0  0  0
  5 14  2  0  0  0  0
  5  6  1  0  0  0  0
  6  7  2  0  0  0  0
  6 22  1  0  0  0  0
  7 12  1  0  0  0  0
  7  8  1  0  0  0  0
  8  9  2  0  0  0  0
  8 23  1  0  0  0  0
  9 10  1  0  0  0  0
  9 24  1  0  0  0  0
 10 11  2  0  0  0  0
 10 25  1  0  0  0  0
 11 12  1  0  0  0  0
 11 26  1  0  0  0  0
 12 13  2  0  0  0  0
 13 14  1  0  0  0  0
 13 27  1  0  0  0  0
 14 15  1  0  0  0  0
 15 16  2  0  0  0  0
 15 17  1  0  0  0  0
 17 18  1  0  0  0  0
 18 28  1  0  0  0  0
 18 29  1  0  0  0  0
 18 30  1  0  0  0  0
M  END
$$$$
