ZINC000000048615      none
 OpenBabel11202420153D

 37 38  0  0  0  0  0  0  0  0999 V2000
   29.9012   37.8126   65.2819 C   0  0  0  0  0  0  0  0  0  0  0  0
   31.1707   37.9447   63.9929 S   0  0  0  0  0  0  0  0  0  0  0  0
   32.3810   37.3353   64.4206 O   0  0  0  0  0  0  0  0  0  0  0  0
   31.1678   39.2458   63.4214 O   0  0  0  0  0  0  0  0  0  0  0  0
   30.6271   36.9627   62.7752 N   0  0  0  0  0  0  0  0  0  0  0  0
   29.7645   37.5082   61.7243 C   0  0  0  0  0  0  0  0  0  0  0  0
   30.4343   37.3364   60.3853 C   0  0  0  0  0  0  0  0  0  0  0  0
   29.8952   36.6835   59.5168 O   0  0  0  0  0  0  0  0  0  0  0  0
   31.6323   37.9084   60.1528 N   0  0  0  0  0  0  0  0  0  0  0  0
   32.2548   37.7487   58.9084 C   0  0  0  0  0  0  0  0  0  0  0  0
   32.0338   36.5992   58.1624 C   0  0  0  0  0  0  0  0  0  0  0  0
   32.6488   36.4447   56.9350 C   0  0  0  0  0  0  0  0  0  0  0  0
   33.4846   37.4330   56.4486 C   0  0  0  0  0  0  0  0  0  0  0  0
   33.7080   38.5798   57.1879 C   0  0  0  0  0  0  0  0  0  0  0  0
   33.0911   38.7439   58.4148 C   0  0  0  0  0  0  0  0  0  0  0  0
   33.3048   39.8670   59.1349 F   0  0  0  0  0  0  0  0  0  0  0  0
   30.9913   35.6128   62.7504 C   0  0  0  0  0  0  0  0  0  0  0  0
   32.1426   35.2149   62.0841 C   0  0  0  0  0  0  0  0  0  0  0  0
   32.4999   33.8806   62.0612 C   0  0  0  0  0  0  0  0  0  0  0  0
   31.7129   32.9406   62.7007 C   0  0  0  0  0  0  0  0  0  0  0  0
   30.5650   33.3318   63.3654 C   0  0  0  0  0  0  0  0  0  0  0  0
   30.2043   34.6663   63.3978 C   0  0  0  0  0  0  0  0  0  0  0  0
   29.0865   35.0494   64.0525 F   0  0  0  0  0  0  0  0  0  0  0  0
   29.9187   36.8095   65.7077 H   0  0  0  0  0  0  0  0  0  0  0  0
   30.1015   38.5435   66.0654 H   0  0  0  0  0  0  0  0  0  0  0  0
   28.9206   38.0058   64.8471 H   0  0  0  0  0  0  0  0  0  0  0  0
   29.5908   38.5679   61.9104 H   0  0  0  0  0  0  0  0  0  0  0  0
   28.8119   36.9783   61.7246 H   0  0  0  0  0  0  0  0  0  0  0  0
   32.0634   38.4307   60.8473 H   0  0  0  0  0  0  0  0  0  0  0  0
   31.3818   35.8261   58.5413 H   0  0  0  0  0  0  0  0  0  0  0  0
   32.4767   35.5503   56.3548 H   0  0  0  0  0  0  0  0  0  0  0  0
   33.9644   37.3086   55.4890 H   0  0  0  0  0  0  0  0  0  0  0  0
   34.3614   39.3500   56.8051 H   0  0  0  0  0  0  0  0  0  0  0  0
   32.7581   35.9478   61.5839 H   0  0  0  0  0  0  0  0  0  0  0  0
   33.3952   33.5711   61.5426 H   0  0  0  0  0  0  0  0  0  0  0  0
   31.9952   31.8983   62.6809 H   0  0  0  0  0  0  0  0  0  0  0  0
   29.9524   32.5949   63.8637 H   0  0  0  0  0  0  0  0  0  0  0  0
  1  2  1  0  0  0  0
  1 24  1  0  0  0  0
  1 25  1  0  0  0  0
  1 26  1  0  0  0  0
  2  3  2  0  0  0  0
  2  4  2  0  0  0  0
  2  5  1  0  0  0  0
  5  6  1  0  0  0  0
  5 17  1  0  0  0  0
  6  7  1  0  0  0  0
  6 27  1  0  0  0  0
  6 28  1  0  0  0  0
  7  8  2  0  0  0  0
  7  9  1  0  0  0  0
  9 10  1  0  0  0  0
  9 29  1  0  0  0  0
 10 15  2  0  0  0  0
 10 11  1  0  0  0  0
 11 12  2  0  0  0  0
 11 30  1  0  0  0  0
 12 13  1  0  0  0  0
 12 31  1  0  0  0  0
 13 14  2  0  0  0  0
 13 32  1  0  0  0  0
 14 15  1  0  0  0  0
 14 33  1  0  0  0  0
 15 16  1  0  0  0  0
 17 22  2  0  0  0  0
 17 18  1  0  0  0  0
 18 19  2  0  0  0  0
 18 34  1  0  0  0  0
 19 20  1  0  0  0  0
 19 35  1  0  0  0  0
 20 21  2  0  0  0  0
 20 36  1  0  0  0  0
 21 22  1  0  0  0  0
 21 37  1  0  0  0  0
 22 23  1  0  0  0  0
M  END
$$$$
