ZINC000000035122      none
 OpenBabel11202420153D

 29 29  0  0  0  0  0  0  0  0999 V2000
   32.1721   36.9538   63.5336 C   0  0  0  0  0  0  0  0  0  0  0  0
   30.7304   37.2020   63.0855 C   0  0  0  0  0  0  0  0  0  0  0  0
   30.3672   38.6688   63.3256 C   0  0  0  0  0  0  0  0  0  0  0  0
   29.7855   36.3049   63.8875 C   0  0  0  0  0  0  0  0  0  0  0  0
   30.6024   36.8944   61.6589 N   0  0  0  0  0  0  0  0  0  0  0  0
   30.8735   35.6527   61.2104 C   0  0  0  0  0  0  0  0  0  0  0  0
   31.2282   34.7914   61.9871 O   0  0  0  0  0  0  0  0  0  0  0  0
   30.7359   35.3346   59.7438 C   0  0  0  0  0  0  0  0  0  0  0  0
   31.6359   36.1944   58.9711 N   0  0  0  0  0  0  0  0  0  0  0  0
   32.4384   35.8187   57.9602 C   0  0  0  0  0  0  0  0  0  0  0  0
   33.0793   36.8773   57.5357 N   0  0  0  0  0  0  0  0  0  0  0  0
   32.7141   37.9426   58.2479 C   0  0  0  0  0  0  0  0  0  0  0  0
   33.2242   39.3193   58.0595 N   0  0  0  0  0  0  0  0  0  0  0  0
   34.0490   39.5499   57.1934 O   0  0  0  0  0  0  0  0  0  0  0  0
   32.8192   40.2214   58.7705 O   0  0  0  0  0  0  0  0  0  0  0  0
   31.8272   37.5760   59.1354 N   0  0  0  0  0  0  0  0  0  0  0  0
   32.8453   37.5929   62.9621 H   0  0  0  0  0  0  0  0  0  0  0  0
   32.2673   37.1826   64.5951 H   0  0  0  0  0  0  0  0  0  0  0  0
   32.4308   35.9087   63.3625 H   0  0  0  0  0  0  0  0  0  0  0  0
   29.3402   38.8457   63.0064 H   0  0  0  0  0  0  0  0  0  0  0  0
   30.4625   38.8977   64.3870 H   0  0  0  0  0  0  0  0  0  0  0  0
   31.0405   39.3080   62.7542 H   0  0  0  0  0  0  0  0  0  0  0  0
   30.0442   35.2599   63.7165 H   0  0  0  0  0  0  0  0  0  0  0  0
   29.8806   36.5338   64.9489 H   0  0  0  0  0  0  0  0  0  0  0  0
   28.7584   36.4818   63.5682 H   0  0  0  0  0  0  0  0  0  0  0  0
   30.3188   37.5833   61.0377 H   0  0  0  0  0  0  0  0  0  0  0  0
   30.9956   34.2899   59.5726 H   0  0  0  0  0  0  0  0  0  0  0  0
   29.7071   35.5096   59.4291 H   0  0  0  0  0  0  0  0  0  0  0  0
   32.5366   34.8176   57.5668 H   0  0  0  0  0  0  0  0  0  0  0  0
  1  2  1  0  0  0  0
  1 17  1  0  0  0  0
  1 18  1  0  0  0  0
  1 19  1  0  0  0  0
  2  3  1  0  0  0  0
  2  4  1  0  0  0  0
  2  5  1  0  0  0  0
  3 20  1  0  0  0  0
  3 21  1  0  0  0  0
  3 22  1  0  0  0  0
  4 23  1  0  0  0  0
  4 24  1  0  0  0  0
  4 25  1  0  0  0  0
  5  6  1  0  0  0  0
  5 26  1  0  0  0  0
  6  7  2  0  0  0  0
  6  8  1  0  0  0  0
  8  9  1  0  0  0  0
  8 27  1  0  0  0  0
  8 28  1  0  0  0  0
  9 16  1  0  0  0  0
  9 10  1  0  0  0  0
 10 11  2  0  0  0  0
 10 29  1  0  0  0  0
 11 12  1  0  0  0  0
 12 13  1  0  0  0  0
 12 16  2  0  0  0  0
 13 14  2  0  0  0  0
 13 15  2  0  0  0  0
M  END
$$$$
