ZINC000000054169      none
 OpenBabel11202420153D

 38 40  0  0  0  0  0  0  0  0999 V2000
   32.5199   35.5090   63.2575 C   0  0  0  0  0  0  0  0  0  0  0  0
   31.1496   36.1244   62.9665 C   0  0  0  0  0  0  0  0  0  0  0  0
   30.4514   35.3187   61.8690 C   0  0  0  0  0  0  0  0  0  0  0  0
   31.2897   35.3441   60.6169 C   0  0  0  0  0  0  0  0  0  0  0  0
   31.6469   36.3846   59.9423 N   0  0  0  0  0  0  0  0  0  0  0  0
   32.4292   36.2213   58.8209 N   0  0  0  0  0  0  0  0  0  0  0  0
   32.9580   37.2554   58.0209 C   0  0  0  0  0  0  0  0  0  0  0  0
   33.1185   38.4799   58.4448 N   0  0  0  0  0  0  0  0  0  0  0  0
   33.3149   36.8116   56.6423 C   0  0  0  0  0  0  0  0  0  0  0  0
   33.2111   37.6436   55.5651 C   0  0  0  0  0  0  0  0  0  0  0  0
   33.4075   37.1171   54.2096 C   0  0  0  0  0  0  0  0  0  0  0  0
   32.5807   36.0960   53.7239 C   0  0  0  0  0  0  0  0  0  0  0  0
   32.7684   35.6113   52.4476 C   0  0  0  0  0  0  0  0  0  0  0  0
   33.7782   36.1227   51.6501 C   0  0  0  0  0  0  0  0  0  0  0  0
   34.6036   37.1281   52.1240 C   0  0  0  0  0  0  0  0  0  0  0  0
   34.4263   37.6286   53.3961 C   0  0  0  0  0  0  0  0  0  0  0  0
   35.3263   38.7225   53.9100 C   0  0  0  0  0  0  0  0  0  0  0  0
   33.7895   35.4102   56.5111 C   0  0  0  0  0  0  0  0  0  0  0  0
   34.5189   35.0798   55.5902 O   0  0  0  0  0  0  0  0  0  0  0  0
   33.3943   34.5156   57.4331 N   0  0  0  0  0  0  0  0  0  0  0  0
   32.7183   34.9226   58.4913 C   0  0  0  0  0  0  0  0  0  0  0  0
   31.9869   33.9499   59.7705 S   0  0  0  0  0  0  0  0  0  0  0  0
   33.1261   35.5274   62.3520 H   0  0  0  0  0  0  0  0  0  0  0  0
   33.0172   36.0830   64.0394 H   0  0  0  0  0  0  0  0  0  0  0  0
   32.3924   34.4784   63.5886 H   0  0  0  0  0  0  0  0  0  0  0  0
   31.2771   37.1551   62.6354 H   0  0  0  0  0  0  0  0  0  0  0  0
   30.5434   36.1060   63.8722 H   0  0  0  0  0  0  0  0  0  0  0  0
   29.4752   35.7571   61.6617 H   0  0  0  0  0  0  0  0  0  0  0  0
   30.3239   34.2881   62.2002 H   0  0  0  0  0  0  0  0  0  0  0  0
   32.8696   38.7156   59.3523 H   0  0  0  0  0  0  0  0  0  0  0  0
   32.9844   38.6896   55.7106 H   0  0  0  0  0  0  0  0  0  0  0  0
   31.7958   35.6925   54.3464 H   0  0  0  0  0  0  0  0  0  0  0  0
   32.1288   34.8275   52.0698 H   0  0  0  0  0  0  0  0  0  0  0  0
   33.9226   35.7348   50.6526 H   0  0  0  0  0  0  0  0  0  0  0  0
   35.3884   37.5217   51.4952 H   0  0  0  0  0  0  0  0  0  0  0  0
   36.1921   38.2794   54.4021 H   0  0  0  0  0  0  0  0  0  0  0  0
   35.6592   39.3409   53.0764 H   0  0  0  0  0  0  0  0  0  0  0  0
   34.7787   39.3385   54.6234 H   0  0  0  0  0  0  0  0  0  0  0  0
  1  2  1  0  0  0  0
  1 23  1  0  0  0  0
  1 24  1  0  0  0  0
  1 25  1  0  0  0  0
  2  3  1  0  0  0  0
  2 26  1  0  0  0  0
  2 27  1  0  0  0  0
  3  4  1  0  0  0  0
  3 28  1  0  0  0  0
  3 29  1  0  0  0  0
  4 22  1  0  0  0  0
  4  5  2  0  0  0  0
  5  6  1  0  0  0  0
  6 21  1  0  0  0  0
  6  7  1  0  0  0  0
  7  8  2  0  0  0  0
  7  9  1  0  0  0  0
  8 30  1  0  0  0  0
  9 10  2  0  0  0  0
  9 18  1  0  0  0  0
 10 11  1  0  0  0  0
 10 31  1  0  0  0  0
 11 16  2  0  0  0  0
 11 12  1  0  0  0  0
 12 13  2  0  0  0  0
 12 32  1  0  0  0  0
 13 14  1  0  0  0  0
 13 33  1  0  0  0  0
 14 15  2  0  0  0  0
 14 34  1  0  0  0  0
 15 16  1  0  0  0  0
 15 35  1  0  0  0  0
 16 17  1  0  0  0  0
 17 36  1  0  0  0  0
 17 37  1  0  0  0  0
 17 38  1  0  0  0  0
 18 19  2  0  0  0  0
 18 20  1  0  0  0  0
 20 21  2  0  0  0  0
 21 22  1  0  0  0  0
M  END
$$$$
