ZINC000000001255      none
 OpenBabel11202420153D

 44 45  0  0  0  0  0  0  0  0999 V2000
   32.1677   38.1943   58.3062 C   0  0  0  0  0  0  0  0  0  0  0  0
   31.9785   37.3981   59.5261 N   0  0  0  0  0  0  0  0  0  0  0  0
   30.5507   37.2055   59.8129 C   0  0  0  0  0  0  0  0  0  0  0  0
   30.3953   36.2255   60.9807 C   0  0  0  0  0  0  0  0  0  0  0  0
   31.1961   36.7165   62.1123 N   0  0  0  0  0  0  0  0  0  0  0  0
   30.6534   36.8462   63.3392 C   0  0  0  0  0  0  0  0  0  0  0  0
   29.4868   36.5558   63.5217 O   0  0  0  0  0  0  0  0  0  0  0  0
   31.4743   37.3401   64.4598 C   0  0  0  0  0  0  0  0  0  0  0  0
   31.1078   38.5044   65.1401 C   0  0  0  0  0  0  0  0  0  0  0  0
   31.8792   38.9607   66.1861 C   0  0  0  0  0  0  0  0  0  0  0  0
   31.4146   40.4291   67.0421 S   0  0  0  0  0  0  0  0  0  0  0  0
   32.6005   40.9398   67.6353 O   0  0  0  0  0  0  0  0  0  0  0  0
   30.6097   41.1797   66.1432 O   0  0  0  0  0  0  0  0  0  0  0  0
   30.4247   39.9767   68.2901 N   0  0  0  0  0  0  0  0  0  0  0  0
   30.9973   39.6550   69.5995 C   0  0  0  0  0  0  0  0  0  0  0  0
   28.9764   39.8984   68.0848 C   0  0  0  0  0  0  0  0  0  0  0  0
   33.0195   38.2710   66.5686 C   0  0  0  0  0  0  0  0  0  0  0  0
   33.3941   37.1198   65.9077 C   0  0  0  0  0  0  0  0  0  0  0  0
   32.6254   36.6406   64.8539 C   0  0  0  0  0  0  0  0  0  0  0  0
   32.9975   35.4787   64.1904 N   0  0  0  0  0  0  0  0  0  0  0  0
   32.6049   37.0624   61.8696 C   0  0  0  0  0  0  0  0  0  0  0  0
   32.6733   38.0095   60.6669 C   0  0  0  0  0  0  0  0  0  0  0  0
   33.2310   38.2574   58.0748 H   0  0  0  0  0  0  0  0  0  0  0  0
   31.6430   37.7193   57.4773 H   0  0  0  0  0  0  0  0  0  0  0  0
   31.7695   39.1970   58.4614 H   0  0  0  0  0  0  0  0  0  0  0  0
   30.1008   38.1621   60.0785 H   0  0  0  0  0  0  0  0  0  0  0  0
   30.0537   36.8018   58.9307 H   0  0  0  0  0  0  0  0  0  0  0  0
   30.7506   35.2396   60.6809 H   0  0  0  0  0  0  0  0  0  0  0  0
   29.3466   36.1668   61.2723 H   0  0  0  0  0  0  0  0  0  0  0  0
   30.2208   39.0459   64.8460 H   0  0  0  0  0  0  0  0  0  0  0  0
   31.0461   40.5589   70.2069 H   0  0  0  0  0  0  0  0  0  0  0  0
   30.3709   38.9155   70.0984 H   0  0  0  0  0  0  0  0  0  0  0  0
   32.0012   39.2512   69.4679 H   0  0  0  0  0  0  0  0  0  0  0  0
   28.7104   38.8953   67.7514 H   0  0  0  0  0  0  0  0  0  0  0  0
   28.4642   40.1176   69.0217 H   0  0  0  0  0  0  0  0  0  0  0  0
   28.6768   40.6239   67.3286 H   0  0  0  0  0  0  0  0  0  0  0  0
   33.6173   38.6372   67.3901 H   0  0  0  0  0  0  0  0  0  0  0  0
   34.2833   36.5880   66.2123 H   0  0  0  0  0  0  0  0  0  0  0  0
   32.5064   35.1900   63.4053 H   0  0  0  0  0  0  0  0  0  0  0  0
   33.7485   34.9558   64.5121 H   0  0  0  0  0  0  0  0  0  0  0  0
   33.1727   36.1569   61.6554 H   0  0  0  0  0  0  0  0  0  0  0  0
   33.0172   37.5571   62.7490 H   0  0  0  0  0  0  0  0  0  0  0  0
   33.7159   38.1889   60.4040 H   0  0  0  0  0  0  0  0  0  0  0  0
   32.1942   38.9551   60.9203 H   0  0  0  0  0  0  0  0  0  0  0  0
  1  2  1  0  0  0  0
  1 23  1  0  0  0  0
  1 24  1  0  0  0  0
  1 25  1  0  0  0  0
  2 22  1  0  0  0  0
  2  3  1  0  0  0  0
  3  4  1  0  0  0  0
  3 26  1  0  0  0  0
  3 27  1  0  0  0  0
  4  5  1  0  0  0  0
  4 28  1  0  0  0  0
  4 29  1  0  0  0  0
  5  6  1  0  0  0  0
  5 21  1  0  0  0  0
  6  7  2  0  0  0  0
  6  8  1  0  0  0  0
  8 19  2  0  0  0  0
  8  9  1  0  0  0  0
  9 10  2  0  0  0  0
  9 30  1  0  0  0  0
 10 11  1  0  0  0  0
 10 17  1  0  0  0  0
 11 12  2  0  0  0  0
 11 13  2  0  0  0  0
 11 14  1  0  0  0  0
 14 15  1  0  0  0  0
 14 16  1  0  0  0  0
 15 31  1  0  0  0  0
 15 32  1  0  0  0  0
 15 33  1  0  0  0  0
 16 34  1  0  0  0  0
 16 35  1  0  0  0  0
 16 36  1  0  0  0  0
 17 18  2  0  0  0  0
 17 37  1  0  0  0  0
 18 19  1  0  0  0  0
 18 38  1  0  0  0  0
 19 20  1  0  0  0  0
 20 39  1  0  0  0  0
 20 40  1  0  0  0  0
 21 22  1  0  0  0  0
 21 41  1  0  0  0  0
 21 42  1  0  0  0  0
 22 43  1  0  0  0  0
 22 44  1  0  0  0  0
M  END
$$$$
