ZINC000000036132      none
 OpenBabel11202420153D

 22 23  0  0  0  0  0  0  0  0999 V2000
   32.9017   36.3555   64.8155 N   0  0  0  0  0  0  0  0  0  0  0  0
   32.5270   36.3775   63.4803 C   0  0  0  0  0  0  0  0  0  0  0  0
   32.2361   37.4369   62.7809 N   0  0  0  0  0  0  0  0  0  0  0  0
   31.9145   37.2700   61.5730 N   0  0  0  0  0  0  0  0  0  0  0  0
   31.8952   36.0620   61.1120 C   0  0  0  0  0  0  0  0  0  0  0  0
   31.5398   35.6549   59.7051 C   0  0  0  0  0  0  0  0  0  0  0  0
   32.2316   36.5696   58.7275 C   0  0  0  0  0  0  0  0  0  0  0  0
   32.8706   36.0421   57.6209 C   0  0  0  0  0  0  0  0  0  0  0  0
   33.5010   36.8810   56.7215 C   0  0  0  0  0  0  0  0  0  0  0  0
   33.5015   38.2479   56.9342 C   0  0  0  0  0  0  0  0  0  0  0  0
   34.3705   39.3956   55.7081 Br  0  0  0  0  0  0  0  0  0  0  0  0
   32.8665   38.7748   58.0444 C   0  0  0  0  0  0  0  0  0  0  0  0
   32.2317   37.9354   58.9405 C   0  0  0  0  0  0  0  0  0  0  0  0
   32.3589   34.9746   62.4224 S   0  0  0  0  0  0  0  0  0  0  0  0
   32.9659   37.1847   65.3149 H   0  0  0  0  0  0  0  0  0  0  0  0
   33.0995   35.5111   65.2500 H   0  0  0  0  0  0  0  0  0  0  0  0
   31.8614   34.6279   59.5319 H   0  0  0  0  0  0  0  0  0  0  0  0
   30.4608   35.7258   59.5681 H   0  0  0  0  0  0  0  0  0  0  0  0
   32.8738   34.9745   57.4571 H   0  0  0  0  0  0  0  0  0  0  0  0
   33.9970   36.4692   55.8550 H   0  0  0  0  0  0  0  0  0  0  0  0
   32.8668   39.8418   58.2111 H   0  0  0  0  0  0  0  0  0  0  0  0
   31.7362   38.3468   59.8075 H   0  0  0  0  0  0  0  0  0  0  0  0
  1  2  1  0  0  0  0
  1 15  1  0  0  0  0
  1 16  1  0  0  0  0
  2 14  1  0  0  0  0
  2  3  2  0  0  0  0
  3  4  1  0  0  0  0
  4  5  2  0  0  0  0
  5  6  1  0  0  0  0
  5 14  1  0  0  0  0
  6  7  1  0  0  0  0
  6 17  1  0  0  0  0
  6 18  1  0  0  0  0
  7 13  2  0  0  0  0
  7  8  1  0  0  0  0
  8  9  2  0  0  0  0
  8 19  1  0  0  0  0
  9 10  1  0  0  0  0
  9 20  1  0  0  0  0
 10 11  1  0  0  0  0
 10 12  2  0  0  0  0
 12 13  1  0  0  0  0
 12 21  1  0  0  0  0
 13 22  1  0  0  0  0
M  END
$$$$
