ZINC000000040847      none
 OpenBabel11202420153D

 25 27  0  0  0  0  0  0  0  0999 V2000
   34.6051   37.2166   53.2458 C   0  0  0  0  0  0  0  0  0  0  0  0
   34.0729   36.9370   54.6278 C   0  0  0  0  0  0  0  0  0  0  0  0
   33.6901   35.6441   54.9874 C   0  0  0  0  0  0  0  0  0  0  0  0
   33.2153   35.3751   56.2266 C   0  0  0  0  0  0  0  0  0  0  0  0
   32.7541   33.7482   56.6190 Cl  0  0  0  0  0  0  0  0  0  0  0  0
   33.0891   36.3460   57.1734 N   0  0  0  0  0  0  0  0  0  0  0  0
   33.4452   37.6427   56.8948 C   0  0  0  0  0  0  0  0  0  0  0  0
   33.2358   38.3947   57.9584 N   0  0  0  0  0  0  0  0  0  0  0  0
   32.7432   37.6390   58.9608 C   0  0  0  0  0  0  0  0  0  0  0  0
   32.3546   37.9246   60.2750 C   0  0  0  0  0  0  0  0  0  0  0  0
   31.8811   36.9261   61.0770 C   0  0  0  0  0  0  0  0  0  0  0  0
   31.7796   35.6253   60.6033 C   0  0  0  0  0  0  0  0  0  0  0  0
   32.1562   35.3198   59.3124 C   0  0  0  0  0  0  0  0  0  0  0  0
   32.6400   36.3205   58.4814 C   0  0  0  0  0  0  0  0  0  0  0  0
   33.9637   37.9635   55.5592 C   0  0  0  0  0  0  0  0  0  0  0  0
   34.3470   39.3017   55.2235 C   0  0  0  0  0  0  0  0  0  0  0  0
   34.6510   40.3634   54.9573 N   0  0  0  0  0  0  0  0  0  0  0  0
   33.7786   37.4751   52.5837 H   0  0  0  0  0  0  0  0  0  0  0  0
   35.3096   38.0472   53.2889 H   0  0  0  0  0  0  0  0  0  0  0  0
   35.1117   36.3298   52.8652 H   0  0  0  0  0  0  0  0  0  0  0  0
   33.7737   34.8453   54.2655 H   0  0  0  0  0  0  0  0  0  0  0  0
   32.4290   38.9333   60.6538 H   0  0  0  0  0  0  0  0  0  0  0  0
   31.5821   37.1508   62.0901 H   0  0  0  0  0  0  0  0  0  0  0  0
   31.4027   34.8470   61.2504 H   0  0  0  0  0  0  0  0  0  0  0  0
   32.0746   34.3059   58.9495 H   0  0  0  0  0  0  0  0  0  0  0  0
  1  2  1  0  0  0  0
  1 18  1  0  0  0  0
  1 19  1  0  0  0  0
  1 20  1  0  0  0  0
  2 15  2  0  0  0  0
  2  3  1  0  0  0  0
  3  4  2  0  0  0  0
  3 21  1  0  0  0  0
  4  5  1  0  0  0  0
  4  6  1  0  0  0  0
  6 14  1  0  0  0  0
  6  7  1  0  0  0  0
  7  8  2  0  0  0  0
  7 15  1  0  0  0  0
  8  9  1  0  0  0  0
  9 14  2  0  0  0  0
  9 10  1  0  0  0  0
 10 11  2  0  0  0  0
 10 22  1  0  0  0  0
 11 12  1  0  0  0  0
 11 23  1  0  0  0  0
 12 13  2  0  0  0  0
 12 24  1  0  0  0  0
 13 14  1  0  0  0  0
 13 25  1  0  0  0  0
 15 16  1  0  0  0  0
 16 17  3  0  0  0  0
M  END
$$$$
