ZINC000000050562      none
 OpenBabel11202420153D

 35 37  0  0  0  0  0  0  0  0999 V2000
   30.6349   32.5697   58.6426 C   0  0  0  0  0  0  0  0  0  0  0  0
   31.9190   33.0753   59.0136 O   0  0  0  0  0  0  0  0  0  0  0  0
   32.3228   34.2293   58.4198 C   0  0  0  0  0  0  0  0  0  0  0  0
   33.0296   34.1794   57.2277 C   0  0  0  0  0  0  0  0  0  0  0  0
   33.4500   35.3447   56.6201 C   0  0  0  0  0  0  0  0  0  0  0  0
   33.1300   36.5760   57.2080 C   0  0  0  0  0  0  0  0  0  0  0  0
   32.4258   36.6299   58.4023 C   0  0  0  0  0  0  0  0  0  0  0  0
   32.0193   35.4540   59.0105 C   0  0  0  0  0  0  0  0  0  0  0  0
   31.3312   35.4943   60.1828 O   0  0  0  0  0  0  0  0  0  0  0  0
   32.0999   35.4742   61.3873 C   0  0  0  0  0  0  0  0  0  0  0  0
   33.5705   37.7916   56.4961 C   0  0  0  0  0  0  0  0  0  0  0  0
   33.6495   39.0389   56.8523 N   0  0  0  0  0  0  0  0  0  0  0  0
   34.1104   39.7526   55.8812 N   0  0  0  0  0  0  0  0  0  0  0  0
   34.3319   39.0137   54.8414 N   0  0  0  0  0  0  0  0  0  0  0  0
   33.9727   37.7164   55.1921 N   0  0  0  0  0  0  0  0  0  0  0  0
   33.9651   36.4739   54.4295 C   0  0  0  0  0  0  0  0  0  0  0  0
   32.5924   36.2851   53.7807 C   0  0  0  0  0  0  0  0  0  0  0  0
   35.0346   36.5420   53.3376 C   0  0  0  0  0  0  0  0  0  0  0  0
   34.2569   35.2907   55.3518 C   0  0  0  0  0  0  0  0  0  0  0  0
   30.4363   31.6471   59.1880 H   0  0  0  0  0  0  0  0  0  0  0  0
   29.8700   33.3072   58.8854 H   0  0  0  0  0  0  0  0  0  0  0  0
   30.6192   32.3689   57.5714 H   0  0  0  0  0  0  0  0  0  0  0  0
   33.2549   33.2251   56.7753 H   0  0  0  0  0  0  0  0  0  0  0  0
   32.1958   37.5831   58.8547 H   0  0  0  0  0  0  0  0  0  0  0  0
   32.6910   34.5592   61.4259 H   0  0  0  0  0  0  0  0  0  0  0  0
   31.4301   35.5106   62.2465 H   0  0  0  0  0  0  0  0  0  0  0  0
   32.7651   36.3376   61.4083 H   0  0  0  0  0  0  0  0  0  0  0  0
   32.3873   37.1227   53.1141 H   0  0  0  0  0  0  0  0  0  0  0  0
   32.5850   35.3564   53.2101 H   0  0  0  0  0  0  0  0  0  0  0  0
   31.8271   36.2416   54.5556 H   0  0  0  0  0  0  0  0  0  0  0  0
   36.0136   36.6819   53.7962 H   0  0  0  0  0  0  0  0  0  0  0  0
   35.0304   35.6136   52.7664 H   0  0  0  0  0  0  0  0  0  0  0  0
   34.8221   37.3789   52.6724 H   0  0  0  0  0  0  0  0  0  0  0  0
   34.0248   34.3656   54.8242 H   0  0  0  0  0  0  0  0  0  0  0  0
   35.3163   35.2950   55.6079 H   0  0  0  0  0  0  0  0  0  0  0  0
  1  2  1  0  0  0  0
  1 20  1  0  0  0  0
  1 21  1  0  0  0  0
  1 22  1  0  0  0  0
  2  3  1  0  0  0  0
  3  8  2  0  0  0  0
  3  4  1  0  0  0  0
  4  5  2  0  0  0  0
  4 23  1  0  0  0  0
  5 19  1  0  0  0  0
  5  6  1  0  0  0  0
  6  7  2  0  0  0  0
  6 11  1  0  0  0  0
  7  8  1  0  0  0  0
  7 24  1  0  0  0  0
  8  9  1  0  0  0  0
  9 10  1  0  0  0  0
 10 25  1  0  0  0  0
 10 26  1  0  0  0  0
 10 27  1  0  0  0  0
 11 15  1  0  0  0  0
 11 12  2  0  0  0  0
 12 13  1  0  0  0  0
 13 14  2  0  0  0  0
 14 15  1  0  0  0  0
 15 16  1  0  0  0  0
 16 17  1  0  0  0  0
 16 18  1  0  0  0  0
 16 19  1  0  0  0  0
 17 28  1  0  0  0  0
 17 29  1  0  0  0  0
 17 30  1  0  0  0  0
 18 31  1  0  0  0  0
 18 32  1  0  0  0  0
 18 33  1  0  0  0  0
 19 34  1  0  0  0  0
 19 35  1  0  0  0  0
M  END
$$$$
