ZINC000000025569      none
 OpenBabel11202420153D

 40 42  0  0  0  0  0  0  0  0999 V2000
   33.6220   40.5013   58.7628 C   0  0  0  0  0  0  0  0  0  0  0  0
   32.7721   39.5243   59.3669 O   0  0  0  0  0  0  0  0  0  0  0  0
   32.6818   38.3191   58.7486 C   0  0  0  0  0  0  0  0  0  0  0  0
   33.3947   38.0803   57.5868 C   0  0  0  0  0  0  0  0  0  0  0  0
   33.3030   36.8498   56.9545 C   0  0  0  0  0  0  0  0  0  0  0  0
   34.0044   36.6219   55.8142 O   0  0  0  0  0  0  0  0  0  0  0  0
   33.3580   36.9406   54.5803 C   0  0  0  0  0  0  0  0  0  0  0  0
   32.4924   35.8439   57.4848 C   0  0  0  0  0  0  0  0  0  0  0  0
   32.4088   34.6392   56.8581 O   0  0  0  0  0  0  0  0  0  0  0  0
   33.3501   33.6377   57.2491 C   0  0  0  0  0  0  0  0  0  0  0  0
   31.7814   36.0663   58.6446 C   0  0  0  0  0  0  0  0  0  0  0  0
   31.8642   37.3101   59.2870 C   0  0  0  0  0  0  0  0  0  0  0  0
   31.1067   37.5550   60.5168 C   0  0  0  0  0  0  0  0  0  0  0  0
   30.8293   36.5256   61.3608 C   0  0  0  0  0  0  0  0  0  0  0  0
   31.2878   35.2561   61.2515 O   0  0  0  0  0  0  0  0  0  0  0  0
   30.8306   34.4698   62.2498 C   0  0  0  0  0  0  0  0  0  0  0  0
   31.0402   33.1250   62.5305 C   0  0  0  0  0  0  0  0  0  0  0  0
   30.4431   32.5476   63.6388 C   0  0  0  0  0  0  0  0  0  0  0  0
   30.6518   31.2336   63.9076 O   0  0  0  0  0  0  0  0  0  0  0  0
   29.6311   33.3037   64.4803 C   0  0  0  0  0  0  0  0  0  0  0  0
   29.4153   34.6270   64.2188 C   0  0  0  0  0  0  0  0  0  0  0  0
   30.0095   35.2218   63.1052 C   0  0  0  0  0  0  0  0  0  0  0  0
   29.9839   36.5908   62.5587 C   0  0  0  0  0  0  0  0  0  0  0  0
   29.3910   37.5599   63.0016 O   0  0  0  0  0  0  0  0  0  0  0  0
   33.6034   41.4156   59.3559 H   0  0  0  0  0  0  0  0  0  0  0  0
   34.6415   40.1182   58.7178 H   0  0  0  0  0  0  0  0  0  0  0  0
   33.2695   40.7155   57.7539 H   0  0  0  0  0  0  0  0  0  0  0  0
   34.0234   38.8540   57.1715 H   0  0  0  0  0  0  0  0  0  0  0  0
   34.0263   36.7111   53.7503 H   0  0  0  0  0  0  0  0  0  0  0  0
   32.4455   36.3520   54.4855 H   0  0  0  0  0  0  0  0  0  0  0  0
   33.1093   38.0017   54.5639 H   0  0  0  0  0  0  0  0  0  0  0  0
   33.1736   32.7288   56.6740 H   0  0  0  0  0  0  0  0  0  0  0  0
   34.3619   33.9965   57.0601 H   0  0  0  0  0  0  0  0  0  0  0  0
   33.2329   33.4239   58.3114 H   0  0  0  0  0  0  0  0  0  0  0  0
   31.1586   35.2856   59.0555 H   0  0  0  0  0  0  0  0  0  0  0  0
   30.7726   38.5539   60.7552 H   0  0  0  0  0  0  0  0  0  0  0  0
   31.6688   32.5300   61.8845 H   0  0  0  0  0  0  0  0  0  0  0  0
   30.1963   30.9167   64.6995 H   0  0  0  0  0  0  0  0  0  0  0  0
   29.1709   32.8428   65.3419 H   0  0  0  0  0  0  0  0  0  0  0  0
   28.7851   35.2118   64.8726 H   0  0  0  0  0  0  0  0  0  0  0  0
  1  2  1  0  0  0  0
  1 25  1  0  0  0  0
  1 26  1  0  0  0  0
  1 27  1  0  0  0  0
  2  3  1  0  0  0  0
  3 12  2  0  0  0  0
  3  4  1  0  0  0  0
  4  5  2  0  0  0  0
  4 28  1  0  0  0  0
  5  6  1  0  0  0  0
  5  8  1  0  0  0  0
  6  7  1  0  0  0  0
  7 29  1  0  0  0  0
  7 30  1  0  0  0  0
  7 31  1  0  0  0  0
  8  9  1  0  0  0  0
  8 11  2  0  0  0  0
  9 10  1  0  0  0  0
 10 32  1  0  0  0  0
 10 33  1  0  0  0  0
 10 34  1  0  0  0  0
 11 12  1  0  0  0  0
 11 35  1  0  0  0  0
 12 13  1  0  0  0  0
 13 14  2  0  0  0  0
 13 36  1  0  0  0  0
 14 23  1  0  0  0  0
 14 15  1  0  0  0  0
 15 16  1  0  0  0  0
 16 22  2  0  0  0  0
 16 17  1  0  0  0  0
 17 18  2  0  0  0  0
 17 37  1  0  0  0  0
 18 19  1  0  0  0  0
 18 20  1  0  0  0  0
 19 38  1  0  0  0  0
 20 21  2  0  0  0  0
 20 39  1  0  0  0  0
 21 22  1  0  0  0  0
 21 40  1  0  0  0  0
 22 23  1  0  0  0  0
 23 24  2  0  0  0  0
M  END
$$$$
