ZINC000000041972      none
 OpenBabel11202420153D

 39 41  0  0  0  0  0  0  0  0999 V2000
   30.9436   36.7980   65.6743 C   0  0  0  0  0  0  0  0  0  0  0  0
   30.1372   36.2842   64.6123 O   0  0  0  0  0  0  0  0  0  0  0  0
   30.6637   36.3304   63.3598 C   0  0  0  0  0  0  0  0  0  0  0  0
   29.9338   35.8487   62.2827 C   0  0  0  0  0  0  0  0  0  0  0  0
   30.4679   35.8957   61.0103 C   0  0  0  0  0  0  0  0  0  0  0  0
   31.7354   36.4251   60.8088 C   0  0  0  0  0  0  0  0  0  0  0  0
   32.2785   36.4726   59.5167 N   0  0  0  0  0  0  0  0  0  0  0  0
   32.4553   35.3168   58.8098 C   0  0  0  0  0  0  0  0  0  0  0  0
   31.9928   33.7840   59.5455 S   0  0  0  0  0  0  0  0  0  0  0  0
   30.7538   33.2234   58.3513 C   0  0  0  0  0  0  0  0  0  0  0  0
   32.9607   35.3161   57.5977 N   0  0  0  0  0  0  0  0  0  0  0  0
   33.3272   36.4656   56.9987 C   0  0  0  0  0  0  0  0  0  0  0  0
   33.8567   36.7553   55.7996 N   0  0  0  0  0  0  0  0  0  0  0  0
   34.0347   38.0540   55.6890 C   0  0  0  0  0  0  0  0  0  0  0  0
   34.7056   38.8704   54.2789 S   0  0  0  0  0  0  0  0  0  0  0  0
   35.0084   37.4450   53.2051 C   0  0  0  0  0  0  0  0  0  0  0  0
   33.6214   38.6716   56.8304 N   0  0  0  0  0  0  0  0  0  0  0  0
   33.6530   40.1103   57.1053 C   0  0  0  0  0  0  0  0  0  0  0  0
   33.1646   37.6759   57.6838 C   0  0  0  0  0  0  0  0  0  0  0  0
   32.6199   37.6620   58.9732 C   0  0  0  0  0  0  0  0  0  0  0  0
   32.4611   38.7005   59.5948 O   0  0  0  0  0  0  0  0  0  0  0  0
   32.4675   36.9021   61.8877 C   0  0  0  0  0  0  0  0  0  0  0  0
   31.9303   36.8595   63.1590 C   0  0  0  0  0  0  0  0  0  0  0  0
   31.1637   37.8490   65.4877 H   0  0  0  0  0  0  0  0  0  0  0  0
   30.4065   36.7013   66.6179 H   0  0  0  0  0  0  0  0  0  0  0  0
   31.8757   36.2355   65.7275 H   0  0  0  0  0  0  0  0  0  0  0  0
   28.9480   35.4366   62.4396 H   0  0  0  0  0  0  0  0  0  0  0  0
   29.8995   35.5210   60.1718 H   0  0  0  0  0  0  0  0  0  0  0  0
   31.2156   33.1218   57.3692 H   0  0  0  0  0  0  0  0  0  0  0  0
   30.3552   32.2592   58.6669 H   0  0  0  0  0  0  0  0  0  0  0  0
   29.9442   33.9515   58.2987 H   0  0  0  0  0  0  0  0  0  0  0  0
   35.7035   36.7627   53.6944 H   0  0  0  0  0  0  0  0  0  0  0  0
   34.0677   36.9289   53.0124 H   0  0  0  0  0  0  0  0  0  0  0  0
   35.4360   37.7849   52.2619 H   0  0  0  0  0  0  0  0  0  0  0  0
   34.6053   40.3711   57.5672 H   0  0  0  0  0  0  0  0  0  0  0  0
   33.5391   40.6611   56.1716 H   0  0  0  0  0  0  0  0  0  0  0  0
   32.8382   40.3689   57.7815 H   0  0  0  0  0  0  0  0  0  0  0  0
   33.4552   37.3103   61.7321 H   0  0  0  0  0  0  0  0  0  0  0  0
   32.4978   37.2347   63.9978 H   0  0  0  0  0  0  0  0  0  0  0  0
  1  2  1  0  0  0  0
  1 24  1  0  0  0  0
  1 25  1  0  0  0  0
  1 26  1  0  0  0  0
  2  3  1  0  0  0  0
  3 23  2  0  0  0  0
  3  4  1  0  0  0  0
  4  5  2  0  0  0  0
  4 27  1  0  0  0  0
  5  6  1  0  0  0  0
  5 28  1  0  0  0  0
  6  7  1  0  0  0  0
  6 22  2  0  0  0  0
  7 20  1  0  0  0  0
  7  8  1  0  0  0  0
  8  9  1  0  0  0  0
  8 11  2  0  0  0  0
  9 10  1  0  0  0  0
 10 29  1  0  0  0  0
 10 30  1  0  0  0  0
 10 31  1  0  0  0  0
 11 12  1  0  0  0  0
 12 19  2  0  0  0  0
 12 13  1  0  0  0  0
 13 14  2  0  0  0  0
 14 15  1  0  0  0  0
 14 17  1  0  0  0  0
 15 16  1  0  0  0  0
 16 32  1  0  0  0  0
 16 33  1  0  0  0  0
 16 34  1  0  0  0  0
 17 18  1  0  0  0  0
 17 19  1  0  0  0  0
 18 35  1  0  0  0  0
 18 36  1  0  0  0  0
 18 37  1  0  0  0  0
 19 20  1  0  0  0  0
 20 21  2  0  0  0  0
 22 23  1  0  0  0  0
 22 38  1  0  0  0  0
 23 39  1  0  0  0  0
M  END
$$$$
