ZINC000000032603      none
 OpenBabel11202420153D

 40 42  0  0  0  0  0  0  0  0999 V2000
   33.5163   36.8351   55.2136 C   0  0  0  0  0  0  0  0  0  0  0  0
   33.2141   37.1546   56.6110 N   0  0  0  0  0  0  0  0  0  0  0  0
   32.6458   36.2183   57.3986 C   0  0  0  0  0  0  0  0  0  0  0  0
   32.3851   35.1144   56.9530 O   0  0  0  0  0  0  0  0  0  0  0  0
   32.3575   36.5295   58.7394 C   0  0  0  0  0  0  0  0  0  0  0  0
   32.6654   37.7965   59.2236 C   0  0  0  0  0  0  0  0  0  0  0  0
   32.2986   37.8374   60.5054 N   0  0  0  0  0  0  0  0  0  0  0  0
   31.7796   36.6800   60.8620 C   0  0  0  0  0  0  0  0  0  0  0  0
   31.2985   36.3759   62.1161 N   0  0  0  0  0  0  0  0  0  0  0  0
   31.3391   37.3357   63.1319 C   0  0  0  0  0  0  0  0  0  0  0  0
   32.4471   37.4206   63.9655 C   0  0  0  0  0  0  0  0  0  0  0  0
   32.4861   38.3732   64.9645 C   0  0  0  0  0  0  0  0  0  0  0  0
   31.4193   39.2355   65.1420 C   0  0  0  0  0  0  0  0  0  0  0  0
   30.3124   39.1493   64.3181 C   0  0  0  0  0  0  0  0  0  0  0  0
   30.2691   38.2024   63.3137 C   0  0  0  0  0  0  0  0  0  0  0  0
   31.7985   35.8308   59.8004 N   0  0  0  0  0  0  0  0  0  0  0  0
   31.3192   34.4465   59.7798 C   0  0  0  0  0  0  0  0  0  0  0  0
   32.4635   33.5049   60.1606 C   0  0  0  0  0  0  0  0  0  0  0  0
   33.5335   33.6526   59.2249 O   0  0  0  0  0  0  0  0  0  0  0  0
   33.2488   38.7154   58.3659 N   0  0  0  0  0  0  0  0  0  0  0  0
   33.5837   40.0573   58.8490 C   0  0  0  0  0  0  0  0  0  0  0  0
   33.5076   38.3762   57.0890 C   0  0  0  0  0  0  0  0  0  0  0  0
   34.0199   39.1948   56.3500 O   0  0  0  0  0  0  0  0  0  0  0  0
   33.9691   37.7020   54.7323 H   0  0  0  0  0  0  0  0  0  0  0  0
   34.2094   35.9946   55.1747 H   0  0  0  0  0  0  0  0  0  0  0  0
   32.5954   36.5707   54.6938 H   0  0  0  0  0  0  0  0  0  0  0  0
   30.9315   35.4960   62.2945 H   0  0  0  0  0  0  0  0  0  0  0  0
   33.2786   36.7450   63.8298 H   0  0  0  0  0  0  0  0  0  0  0  0
   33.3492   38.4428   65.6101 H   0  0  0  0  0  0  0  0  0  0  0  0
   31.4496   39.9760   65.9276 H   0  0  0  0  0  0  0  0  0  0  0  0
   29.4807   39.8237   64.4599 H   0  0  0  0  0  0  0  0  0  0  0  0
   29.4041   38.1359   62.6705 H   0  0  0  0  0  0  0  0  0  0  0  0
   30.5032   34.3338   60.4935 H   0  0  0  0  0  0  0  0  0  0  0  0
   30.9637   34.2000   58.7793 H   0  0  0  0  0  0  0  0  0  0  0  0
   32.8191   33.7513   61.1611 H   0  0  0  0  0  0  0  0  0  0  0  0
   32.1069   32.4750   60.1452 H   0  0  0  0  0  0  0  0  0  0  0  0
   33.2884   33.4490   58.3119 H   0  0  0  0  0  0  0  0  0  0  0  0
   34.5987   40.0575   59.2464 H   0  0  0  0  0  0  0  0  0  0  0  0
   33.5160   40.7675   58.0249 H   0  0  0  0  0  0  0  0  0  0  0  0
   32.8857   40.3452   59.6351 H   0  0  0  0  0  0  0  0  0  0  0  0
  1  2  1  0  0  0  0
  1 24  1  0  0  0  0
  1 25  1  0  0  0  0
  1 26  1  0  0  0  0
  2 22  1  0  0  0  0
  2  3  1  0  0  0  0
  3  4  2  0  0  0  0
  3  5  1  0  0  0  0
  5 16  1  0  0  0  0
  5  6  2  0  0  0  0
  6  7  1  0  0  0  0
  6 20  1  0  0  0  0
  7  8  2  0  0  0  0
  8  9  1  0  0  0  0
  8 16  1  0  0  0  0
  9 10  1  0  0  0  0
  9 27  1  0  0  0  0
 10 15  2  0  0  0  0
 10 11  1  0  0  0  0
 11 12  2  0  0  0  0
 11 28  1  0  0  0  0
 12 13  1  0  0  0  0
 12 29  1  0  0  0  0
 13 14  2  0  0  0  0
 13 30  1  0  0  0  0
 14 15  1  0  0  0  0
 14 31  1  0  0  0  0
 15 32  1  0  0  0  0
 16 17  1  0  0  0  0
 17 18  1  0  0  0  0
 17 33  1  0  0  0  0
 17 34  1  0  0  0  0
 18 19  1  0  0  0  0
 18 35  1  0  0  0  0
 18 36  1  0  0  0  0
 19 37  1  0  0  0  0
 20 21  1  0  0  0  0
 20 22  1  0  0  0  0
 21 38  1  0  0  0  0
 21 39  1  0  0  0  0
 21 40  1  0  0  0  0
 22 23  2  0  0  0  0
M  END
$$$$
