ZINC000000053594      none
 OpenBabel11202420153D

 30 31  0  0  1  0  0  0  0  0999 V2000
   29.0311   38.4446   62.9501 C   0  0  0  0  0  0  0  0  0  0  0  0
   30.4596   38.4431   62.9859 O   0  0  0  0  0  0  0  0  0  0  0  0
   31.0855   37.2960   62.6083 C   0  0  0  0  0  0  0  0  0  0  0  0
   31.4389   37.1018   61.2831 C   0  0  0  0  0  0  0  0  0  0  0  0
   32.0700   35.9328   60.8997 C   0  0  0  0  0  0  0  0  0  0  0  0
   32.3553   34.9573   61.8369 C   0  0  0  0  0  0  0  0  0  0  0  0
   32.0112   35.1458   63.1623 C   0  0  0  0  0  0  0  0  0  0  0  0
   31.3778   36.3161   63.5543 C   0  0  0  0  0  0  0  0  0  0  0  0
   31.0284   36.5094   64.8958 N   0  0  0  0  0  0  0  0  0  0  0  0
   29.9551   35.6037   65.2923 C   0  0  0  0  0  0  0  0  0  0  0  0
   30.2797   34.8012   66.5726 C   0  0  0  0  0  0  0  0  0  0  0  0
   31.5444   35.8793   67.3673 S   0  0  0  0  0  0  0  0  0  0  0  0
   32.2256   36.4782   65.7656 C   0  0  2  0  0  0  0  0  0  0  0  0
   32.9681   35.7816   65.3764 H   0  0  0  0  0  0  0  0  0  0  0  0
   32.8150   37.8573   65.9131 C   0  0  0  0  0  0  0  0  0  0  0  0
   32.2821   38.8939   65.2365 N   0  0  0  0  0  0  0  0  0  0  0  0
   33.7690   38.0343   66.6407 O   0  0  0  0  0  0  0  0  0  0  0  0
   28.6606   39.4171   63.2743 H   0  0  0  0  0  0  0  0  0  0  0  0
   28.6930   38.2478   61.9327 H   0  0  0  0  0  0  0  0  0  0  0  0
   28.6501   37.6703   63.6158 H   0  0  0  0  0  0  0  0  0  0  0  0
   31.2173   37.8619   60.5485 H   0  0  0  0  0  0  0  0  0  0  0  0
   32.3404   35.7811   59.8652 H   0  0  0  0  0  0  0  0  0  0  0  0
   32.8487   34.0459   61.5328 H   0  0  0  0  0  0  0  0  0  0  0  0
   32.2350   34.3820   63.8923 H   0  0  0  0  0  0  0  0  0  0  0  0
   29.0501   36.1865   65.4640 H   0  0  0  0  0  0  0  0  0  0  0  0
   29.7701   34.9021   64.4790 H   0  0  0  0  0  0  0  0  0  0  0  0
   29.3981   34.7005   67.2054 H   0  0  0  0  0  0  0  0  0  0  0  0
   30.6961   33.8243   66.3270 H   0  0  0  0  0  0  0  0  0  0  0  0
   31.4747   38.7682   64.7137 H   0  0  0  0  0  0  0  0  0  0  0  0
   32.7057   39.7658   65.2725 H   0  0  0  0  0  0  0  0  0  0  0  0
  1  2  1  0  0  0  0
  1 18  1  0  0  0  0
  1 19  1  0  0  0  0
  1 20  1  0  0  0  0
  2  3  1  0  0  0  0
  3  8  2  0  0  0  0
  3  4  1  0  0  0  0
  4  5  2  0  0  0  0
  4 21  1  0  0  0  0
  5  6  1  0  0  0  0
  5 22  1  0  0  0  0
  6  7  2  0  0  0  0
  6 23  1  0  0  0  0
  7  8  1  0  0  0  0
  7 24  1  0  0  0  0
  8  9  1  0  0  0  0
  9 13  1  0  0  0  0
  9 10  1  0  0  0  0
 10 11  1  0  0  0  0
 10 25  1  0  0  0  0
 10 26  1  0  0  0  0
 11 12  1  0  0  0  0
 11 27  1  0  0  0  0
 11 28  1  0  0  0  0
 12 13  1  0  0  0  0
 13 14  1  6  0  0  0
 13 15  1  0  0  0  0
 15 16  1  0  0  0  0
 15 17  2  0  0  0  0
 16 29  1  0  0  0  0
 16 30  1  0  0  0  0
M  END
$$$$
