ZINC000000030037      none
 OpenBabel11202420163D

 32 33  0  0  0  0  0  0  0  0999 V2000
   31.0998   37.6967   62.7690 C   0  0  0  0  0  0  0  0  0  0  0  0
   31.1173   36.5258   61.7844 C   0  0  0  0  0  0  0  0  0  0  0  0
   31.7238   36.9576   60.5227 N   0  0  0  0  0  0  0  0  0  0  0  0
   31.8462   36.0876   59.5014 C   0  0  0  0  0  0  0  0  0  0  0  0
   31.4530   34.9435   59.6265 O   0  0  0  0  0  0  0  0  0  0  0  0
   32.4578   36.5227   58.2290 C   0  0  0  0  0  0  0  0  0  0  0  0
   32.3974   37.8652   57.8479 C   0  0  0  0  0  0  0  0  0  0  0  0
   32.9674   38.2700   56.6620 C   0  0  0  0  0  0  0  0  0  0  0  0
   33.6051   37.3398   55.8407 C   0  0  0  0  0  0  0  0  0  0  0  0
   34.2185   37.7769   54.5635 C   0  0  0  0  0  0  0  0  0  0  0  0
   34.2898   36.8973   53.4844 C   0  0  0  0  0  0  0  0  0  0  0  0
   34.8623   37.3094   52.2984 C   0  0  0  0  0  0  0  0  0  0  0  0
   35.3650   38.5927   52.1790 C   0  0  0  0  0  0  0  0  0  0  0  0
   35.3022   39.4681   53.2483 C   0  0  0  0  0  0  0  0  0  0  0  0
   34.7267   39.0689   54.4375 C   0  0  0  0  0  0  0  0  0  0  0  0
   33.6608   35.9978   56.2174 C   0  0  0  0  0  0  0  0  0  0  0  0
   33.0965   35.5919   57.4057 C   0  0  0  0  0  0  0  0  0  0  0  0
   32.1206   38.0323   62.9526 H   0  0  0  0  0  0  0  0  0  0  0  0
   30.5181   38.5167   62.3481 H   0  0  0  0  0  0  0  0  0  0  0  0
   30.6486   37.3754   63.7077 H   0  0  0  0  0  0  0  0  0  0  0  0
   30.0965   36.1902   61.6008 H   0  0  0  0  0  0  0  0  0  0  0  0
   31.6990   35.7057   62.2053 H   0  0  0  0  0  0  0  0  0  0  0  0
   32.0375   37.8700   60.4225 H   0  0  0  0  0  0  0  0  0  0  0  0
   31.9037   38.5854   58.4835 H   0  0  0  0  0  0  0  0  0  0  0  0
   32.9207   39.3078   56.3671 H   0  0  0  0  0  0  0  0  0  0  0  0
   33.8980   35.8951   53.5766 H   0  0  0  0  0  0  0  0  0  0  0  0
   34.9177   36.6290   51.4615 H   0  0  0  0  0  0  0  0  0  0  0  0
   35.8122   38.9109   51.2489 H   0  0  0  0  0  0  0  0  0  0  0  0
   35.7003   40.4673   53.1510 H   0  0  0  0  0  0  0  0  0  0  0  0
   34.6743   39.7545   55.2702 H   0  0  0  0  0  0  0  0  0  0  0  0
   34.1505   35.2778   55.5786 H   0  0  0  0  0  0  0  0  0  0  0  0
   33.1437   34.5536   57.6992 H   0  0  0  0  0  0  0  0  0  0  0  0
  1  2  1  0  0  0  0
  1 18  1  0  0  0  0
  1 19  1  0  0  0  0
  1 20  1  0  0  0  0
  2  3  1  0  0  0  0
  2 21  1  0  0  0  0
  2 22  1  0  0  0  0
  3  4  1  0  0  0  0
  3 23  1  0  0  0  0
  4  5  2  0  0  0  0
  4  6  1  0  0  0  0
  6 17  2  0  0  0  0
  6  7  1  0  0  0  0
  7  8  2  0  0  0  0
  7 24  1  0  0  0  0
  8  9  1  0  0  0  0
  8 25  1  0  0  0  0
  9 10  1  0  0  0  0
  9 16  2  0  0  0  0
 10 15  2  0  0  0  0
 10 11  1  0  0  0  0
 11 12  2  0  0  0  0
 11 26  1  0  0  0  0
 12 13  1  0  0  0  0
 12 27  1  0  0  0  0
 13 14  2  0  0  0  0
 13 28  1  0  0  0  0
 14 15  1  0  0  0  0
 14 29  1  0  0  0  0
 15 30  1  0  0  0  0
 16 17  1  0  0  0  0
 16 31  1  0  0  0  0
 17 32  1  0  0  0  0
M  END
$$$$
