ZINC000000030129      none
 OpenBabel11202420163D

 33 34  0  0  1  0  0  0  0  0999 V2000
   30.6175   36.0010   67.9795 C   0  0  0  0  0  0  0  0  0  0  0  0
   30.9200   36.4191   66.5391 C   0  0  2  0  0  0  0  0  0  0  0  0
   30.2798   37.2563   66.2610 H   0  0  0  0  0  0  0  0  0  0  0  0
   30.6570   35.2385   65.5973 C   0  0  0  0  0  0  0  0  0  0  0  0
   31.1294   35.6035   64.2523 N   0  0  0  0  0  0  0  0  0  0  0  0
   30.3363   35.4515   63.1733 C   0  0  0  0  0  0  0  0  0  0  0  0
   29.2123   35.0069   63.3030 O   0  0  0  0  0  0  0  0  0  0  0  0
   30.8349   35.8194   61.8326 C   0  0  0  0  0  0  0  0  0  0  0  0
   30.6407   37.1132   61.3418 C   0  0  0  0  0  0  0  0  0  0  0  0
   29.8115   38.2946   62.3064 Cl  0  0  0  0  0  0  0  0  0  0  0  0
   31.1148   37.4512   60.0896 C   0  0  0  0  0  0  0  0  0  0  0  0
   31.7703   36.5094   59.3170 C   0  0  0  0  0  0  0  0  0  0  0  0
   31.9613   35.2250   59.7936 C   0  0  0  0  0  0  0  0  0  0  0  0
   31.4980   34.8736   61.0461 C   0  0  0  0  0  0  0  0  0  0  0  0
   31.7384   33.2608   61.6420 Cl  0  0  0  0  0  0  0  0  0  0  0  0
   32.4957   36.1337   64.1195 C   0  0  0  0  0  0  0  0  0  0  0  0
   32.6674   37.2757   65.1341 C   0  0  1  0  0  0  0  0  0  0  0  0
   33.7097   37.5938   65.1494 H   0  0  0  0  0  0  0  0  0  0  0  0
   31.7785   38.4561   64.7370 C   0  0  0  0  0  0  0  0  0  0  0  0
   32.2909   36.8101   66.4322 O   0  0  0  0  0  0  0  0  0  0  0  0
   31.2591   35.1648   68.2575 H   0  0  0  0  0  0  0  0  0  0  0  0
   30.8047   36.8408   68.6485 H   0  0  0  0  0  0  0  0  0  0  0  0
   29.5730   35.6992   68.0585 H   0  0  0  0  0  0  0  0  0  0  0  0
   29.5885   35.0251   65.5657 H   0  0  0  0  0  0  0  0  0  0  0  0
   31.1965   34.3595   65.9500 H   0  0  0  0  0  0  0  0  0  0  0  0
   30.9694   38.4520   59.7106 H   0  0  0  0  0  0  0  0  0  0  0  0
   32.1346   36.7783   58.3365 H   0  0  0  0  0  0  0  0  0  0  0  0
   32.4738   34.4950   59.1845 H   0  0  0  0  0  0  0  0  0  0  0  0
   33.2177   35.3438   64.3262 H   0  0  0  0  0  0  0  0  0  0  0  0
   32.6455   36.5135   63.1088 H   0  0  0  0  0  0  0  0  0  0  0  0
   31.8999   39.2619   65.4610 H   0  0  0  0  0  0  0  0  0  0  0  0
   32.0660   38.8106   63.7472 H   0  0  0  0  0  0  0  0  0  0  0  0
   30.7365   38.1368   64.7201 H   0  0  0  0  0  0  0  0  0  0  0  0
  1  2  1  0  0  0  0
  1 21  1  0  0  0  0
  1 22  1  0  0  0  0
  1 23  1  0  0  0  0
  2  3  1  6  0  0  0
  2 20  1  0  0  0  0
  2  4  1  0  0  0  0
  4  5  1  0  0  0  0
  4 24  1  0  0  0  0
  4 25  1  0  0  0  0
  5  6  1  0  0  0  0
  5 16  1  0  0  0  0
  6  7  2  0  0  0  0
  6  8  1  0  0  0  0
  8 14  2  0  0  0  0
  8  9  1  0  0  0  0
  9 10  1  0  0  0  0
  9 11  2  0  0  0  0
 11 12  1  0  0  0  0
 11 26  1  0  0  0  0
 12 13  2  0  0  0  0
 12 27  1  0  0  0  0
 13 14  1  0  0  0  0
 13 28  1  0  0  0  0
 14 15  1  0  0  0  0
 16 17  1  0  0  0  0
 16 29  1  0  0  0  0
 16 30  1  0  0  0  0
 17 18  1  1  0  0  0
 17 19  1  0  0  0  0
 17 20  1  0  0  0  0
 19 31  1  0  0  0  0
 19 32  1  0  0  0  0
 19 33  1  0  0  0  0
M  END
$$$$
