ZINC000000042082      none
 OpenBabel11202420153D

 34 36  0  0  0  0  0  0  0  0999 V2000
   29.8299   39.2787   65.5987 O   0  0  0  0  0  0  0  0  0  0  0  0
   29.9557   38.2960   64.5690 C   0  0  0  0  0  0  0  0  0  0  0  0
   31.2620   37.5202   64.7589 C   0  0  0  0  0  0  0  0  0  0  0  0
   31.4199   36.5101   63.6201 C   0  0  0  0  0  0  0  0  0  0  0  0
   31.4330   37.2186   62.3339 N   0  0  0  0  0  0  0  0  0  0  0  0
   31.7215   36.2961   61.2277 C   0  0  0  0  0  0  0  0  0  0  0  0
   32.2076   37.0784   60.0350 C   0  0  0  0  0  0  0  0  0  0  0  0
   32.3163   38.4546   60.1104 C   0  0  0  0  0  0  0  0  0  0  0  0
   32.7627   39.1766   59.0193 C   0  0  0  0  0  0  0  0  0  0  0  0
   33.1022   38.5218   57.8465 C   0  0  0  0  0  0  0  0  0  0  0  0
   32.9921   37.1356   57.7703 C   0  0  0  0  0  0  0  0  0  0  0  0
   32.5430   36.4186   58.8675 C   0  0  0  0  0  0  0  0  0  0  0  0
   33.3823   36.7348   56.5251 O   0  0  0  0  0  0  0  0  0  0  0  0
   33.3425   37.9206   55.7094 C   0  0  0  0  0  0  0  0  0  0  0  0
   33.5613   38.9895   56.6491 O   0  0  0  0  0  0  0  0  0  0  0  0
   30.1698   37.9324   62.1081 C   0  0  0  0  0  0  0  0  0  0  0  0
   29.9746   38.9850   63.2017 C   0  0  0  0  0  0  0  0  0  0  0  0
   30.5470   39.9274   65.6131 H   0  0  0  0  0  0  0  0  0  0  0  0
   29.1125   37.6070   64.6180 H   0  0  0  0  0  0  0  0  0  0  0  0
   31.2367   36.9926   65.7124 H   0  0  0  0  0  0  0  0  0  0  0  0
   32.1028   38.2139   64.7491 H   0  0  0  0  0  0  0  0  0  0  0  0
   30.5866   35.8077   63.6395 H   0  0  0  0  0  0  0  0  0  0  0  0
   32.3563   35.9661   63.7447 H   0  0  0  0  0  0  0  0  0  0  0  0
   30.8145   35.7534   60.9612 H   0  0  0  0  0  0  0  0  0  0  0  0
   32.4910   35.5883   61.5361 H   0  0  0  0  0  0  0  0  0  0  0  0
   32.0525   38.9667   61.0240 H   0  0  0  0  0  0  0  0  0  0  0  0
   32.8469   40.2515   59.0812 H   0  0  0  0  0  0  0  0  0  0  0  0
   32.4563   35.3435   58.8111 H   0  0  0  0  0  0  0  0  0  0  0  0
   34.1361   37.8986   54.9627 H   0  0  0  0  0  0  0  0  0  0  0  0
   32.3683   38.0243   55.2315 H   0  0  0  0  0  0  0  0  0  0  0  0
   30.1980   38.4213   61.1343 H   0  0  0  0  0  0  0  0  0  0  0  0
   29.3423   37.2235   62.1345 H   0  0  0  0  0  0  0  0  0  0  0  0
   29.0294   39.5040   63.0427 H   0  0  0  0  0  0  0  0  0  0  0  0
   30.7941   39.7027   63.1672 H   0  0  0  0  0  0  0  0  0  0  0  0
  1  2  1  0  0  0  0
  1 18  1  0  0  0  0
  2 17  1  0  0  0  0
  2  3  1  0  0  0  0
  2 19  1  0  0  0  0
  3  4  1  0  0  0  0
  3 20  1  0  0  0  0
  3 21  1  0  0  0  0
  4  5  1  0  0  0  0
  4 22  1  0  0  0  0
  4 23  1  0  0  0  0
  5  6  1  0  0  0  0
  5 16  1  0  0  0  0
  6  7  1  0  0  0  0
  6 24  1  0  0  0  0
  6 25  1  0  0  0  0
  7 12  2  0  0  0  0
  7  8  1  0  0  0  0
  8  9  2  0  0  0  0
  8 26  1  0  0  0  0
  9 10  1  0  0  0  0
  9 27  1  0  0  0  0
 10 15  1  0  0  0  0
 10 11  2  0  0  0  0
 11 12  1  0  0  0  0
 11 13  1  0  0  0  0
 12 28  1  0  0  0  0
 13 14  1  0  0  0  0
 14 15  1  0  0  0  0
 14 29  1  0  0  0  0
 14 30  1  0  0  0  0
 16 17  1  0  0  0  0
 16 31  1  0  0  0  0
 16 32  1  0  0  0  0
 17 33  1  0  0  0  0
 17 34  1  0  0  0  0
M  END
$$$$
