ZINC000000008854      none
 OpenBabel11202420153D

 31 33  0  0  0  0  0  0  0  0999 V2000
   31.7720   37.9324   66.1649 N   0  0  0  0  0  0  0  0  0  0  0  0
   31.6256   37.3551   64.8984 C   0  0  0  0  0  0  0  0  0  0  0  0
   32.6209   36.5287   64.3927 C   0  0  0  0  0  0  0  0  0  0  0  0
   32.4773   35.9592   63.1431 C   0  0  0  0  0  0  0  0  0  0  0  0
   31.3374   36.2127   62.3911 C   0  0  0  0  0  0  0  0  0  0  0  0
   31.1545   35.4865   60.7961 S   0  0  0  0  0  0  0  0  0  0  0  0
   31.8832   36.6846   59.7292 C   0  0  0  0  0  0  0  0  0  0  0  0
   31.8428   38.0400   60.0787 C   0  0  0  0  0  0  0  0  0  0  0  0
   32.4018   38.9848   59.2777 C   0  0  0  0  0  0  0  0  0  0  0  0
   33.0215   38.6066   58.0735 C   0  0  0  0  0  0  0  0  0  0  0  0
   33.6028   39.5631   57.2238 C   0  0  0  0  0  0  0  0  0  0  0  0
   34.1955   39.1644   56.0653 C   0  0  0  0  0  0  0  0  0  0  0  0
   34.2359   37.8184   55.7057 C   0  0  0  0  0  0  0  0  0  0  0  0
   33.6838   36.8637   56.5032 C   0  0  0  0  0  0  0  0  0  0  0  0
   33.0627   37.2374   57.7078 C   0  0  0  0  0  0  0  0  0  0  0  0
   32.4831   36.2787   58.5553 C   0  0  0  0  0  0  0  0  0  0  0  0
   32.5207   34.5965   58.1282 Cl  0  0  0  0  0  0  0  0  0  0  0  0
   30.3411   37.0397   62.8968 C   0  0  0  0  0  0  0  0  0  0  0  0
   28.9162   37.3571   61.9574 Cl  0  0  0  0  0  0  0  0  0  0  0  0
   30.4881   37.6139   64.1450 C   0  0  0  0  0  0  0  0  0  0  0  0
   32.5685   37.7552   66.6897 H   0  0  0  0  0  0  0  0  0  0  0  0
   31.0770   38.5096   66.5183 H   0  0  0  0  0  0  0  0  0  0  0  0
   33.5075   36.3317   64.9771 H   0  0  0  0  0  0  0  0  0  0  0  0
   33.2516   35.3170   62.7503 H   0  0  0  0  0  0  0  0  0  0  0  0
   31.3646   38.3382   61.0001 H   0  0  0  0  0  0  0  0  0  0  0  0
   32.3662   40.0258   59.5635 H   0  0  0  0  0  0  0  0  0  0  0  0
   33.5796   40.6097   57.4892 H   0  0  0  0  0  0  0  0  0  0  0  0
   34.6409   39.9022   55.4145 H   0  0  0  0  0  0  0  0  0  0  0  0
   34.7125   37.5288   54.7808 H   0  0  0  0  0  0  0  0  0  0  0  0
   33.7229   35.8244   56.2122 H   0  0  0  0  0  0  0  0  0  0  0  0
   29.7164   38.2601   64.5364 H   0  0  0  0  0  0  0  0  0  0  0  0
  1  2  1  0  0  0  0
  1 21  1  0  0  0  0
  1 22  1  0  0  0  0
  2 20  2  0  0  0  0
  2  3  1  0  0  0  0
  3  4  2  0  0  0  0
  3 23  1  0  0  0  0
  4  5  1  0  0  0  0
  4 24  1  0  0  0  0
  5  6  1  0  0  0  0
  5 18  2  0  0  0  0
  6  7  1  0  0  0  0
  7 16  2  0  0  0  0
  7  8  1  0  0  0  0
  8  9  2  0  0  0  0
  8 25  1  0  0  0  0
  9 10  1  0  0  0  0
  9 26  1  0  0  0  0
 10 15  2  0  0  0  0
 10 11  1  0  0  0  0
 11 12  2  0  0  0  0
 11 27  1  0  0  0  0
 12 13  1  0  0  0  0
 12 28  1  0  0  0  0
 13 14  2  0  0  0  0
 13 29  1  0  0  0  0
 14 15  1  0  0  0  0
 14 30  1  0  0  0  0
 15 16  1  0  0  0  0
 16 17  1  0  0  0  0
 18 19  1  0  0  0  0
 18 20  1  0  0  0  0
 20 31  1  0  0  0  0
M  END
$$$$
