ZINC000000028302      none
 OpenBabel11202420163D

 26 27  0  0  0  0  0  0  0  0999 V2000
   32.8470   36.6175   62.5359 Cl  0  0  0  0  0  0  0  0  0  0  0  0
   31.6932   36.5067   61.2436 C   0  0  0  0  0  0  0  0  0  0  0  0
   30.3959   36.7753   61.4755 C   0  0  0  0  0  0  0  0  0  0  0  0
   29.2349   36.6209   60.1941 Cl  0  0  0  0  0  0  0  0  0  0  0  0
   29.9599   37.2009   62.8179 C   0  0  0  0  0  0  0  0  0  0  0  0
   29.5676   36.2496   63.7632 C   0  0  0  0  0  0  0  0  0  0  0  0
   29.1555   36.6555   65.0151 C   0  0  0  0  0  0  0  0  0  0  0  0
   29.1399   38.0007   65.3397 C   0  0  0  0  0  0  0  0  0  0  0  0
   29.5270   38.9485   64.4087 C   0  0  0  0  0  0  0  0  0  0  0  0
   29.9364   38.5577   63.1511 C   0  0  0  0  0  0  0  0  0  0  0  0
   32.1352   36.1181   59.8918 C   0  0  0  0  0  0  0  0  0  0  0  0
   32.5324   37.0951   58.9752 C   0  0  0  0  0  0  0  0  0  0  0  0
   32.9493   36.7237   57.7140 C   0  0  0  0  0  0  0  0  0  0  0  0
   32.9650   35.3881   57.3522 C   0  0  0  0  0  0  0  0  0  0  0  0
   32.5680   34.4155   58.2530 C   0  0  0  0  0  0  0  0  0  0  0  0
   32.1535   34.7716   59.5193 C   0  0  0  0  0  0  0  0  0  0  0  0
   29.5827   35.1991   63.5124 H   0  0  0  0  0  0  0  0  0  0  0  0
   28.8478   35.9217   65.7453 H   0  0  0  0  0  0  0  0  0  0  0  0
   28.8198   38.3125   66.3229 H   0  0  0  0  0  0  0  0  0  0  0  0
   29.5081   39.9969   64.6676 H   0  0  0  0  0  0  0  0  0  0  0  0
   30.2380   39.2986   62.4254 H   0  0  0  0  0  0  0  0  0  0  0  0
   32.5168   38.1381   59.2549 H   0  0  0  0  0  0  0  0  0  0  0  0
   33.2605   37.4773   57.0059 H   0  0  0  0  0  0  0  0  0  0  0  0
   33.2881   35.1034   56.3617 H   0  0  0  0  0  0  0  0  0  0  0  0
   32.5824   33.3751   57.9635 H   0  0  0  0  0  0  0  0  0  0  0  0
   31.8438   34.0114   60.2212 H   0  0  0  0  0  0  0  0  0  0  0  0
  1  2  1  0  0  0  0
  2  3  2  0  0  0  0
  2 11  1  0  0  0  0
  3  4  1  0  0  0  0
  3  5  1  0  0  0  0
  5 10  2  0  0  0  0
  5  6  1  0  0  0  0
  6  7  2  0  0  0  0
  6 17  1  0  0  0  0
  7  8  1  0  0  0  0
  7 18  1  0  0  0  0
  8  9  2  0  0  0  0
  8 19  1  0  0  0  0
  9 10  1  0  0  0  0
  9 20  1  0  0  0  0
 10 21  1  0  0  0  0
 11 16  2  0  0  0  0
 11 12  1  0  0  0  0
 12 13  2  0  0  0  0
 12 22  1  0  0  0  0
 13 14  1  0  0  0  0
 13 23  1  0  0  0  0
 14 15  2  0  0  0  0
 14 24  1  0  0  0  0
 15 16  1  0  0  0  0
 15 25  1  0  0  0  0
 16 26  1  0  0  0  0
M  END
$$$$
