ZINC000000000463      none
 OpenBabel11202420153D

 26 28  0  0  1  0  0  0  0  0999 V2000
   29.5670   36.2629   62.8935 C   0  0  0  0  0  0  0  0  0  0  0  0
   31.0794   36.3220   62.6696 C   0  0  2  0  0  0  0  0  0  0  0  0
   31.6032   36.0146   63.5747 H   0  0  0  0  0  0  0  0  0  0  0  0
   31.4993   37.7526   62.2772 C   0  0  0  0  0  0  0  0  0  0  0  0
   32.4703   37.5241   61.0975 C   0  0  2  0  0  0  0  0  0  0  0  0
   33.5062   37.4874   61.4345 H   0  0  0  0  0  0  0  0  0  0  0  0
   32.2766   38.5490   60.1211 O   0  0  0  0  0  0  0  0  0  0  0  0
   32.6871   38.3035   58.8519 C   0  0  0  0  0  0  0  0  0  0  0  0
   33.1413   39.3370   58.0466 C   0  0  0  0  0  0  0  0  0  0  0  0
   33.5397   39.0772   56.7501 C   0  0  0  0  0  0  0  0  0  0  0  0
   33.4908   37.7889   56.2403 C   0  0  0  0  0  0  0  0  0  0  0  0
   33.9874   37.4858   54.6046 Cl  0  0  0  0  0  0  0  0  0  0  0  0
   33.0485   36.7460   57.0302 C   0  0  0  0  0  0  0  0  0  0  0  0
   32.6516   36.9983   58.3400 C   0  0  0  0  0  0  0  0  0  0  0  0
   32.1878   35.9045   59.2249 C   0  0  0  0  0  0  0  0  0  0  0  0
   31.9559   34.7871   58.8057 O   0  0  0  0  0  0  0  0  0  0  0  0
   32.0392   36.2293   60.5304 N   0  0  0  0  0  0  0  0  0  0  0  0
   31.4474   35.4704   61.5765 O   0  0  0  0  0  0  0  0  0  0  0  0
   29.0525   36.5486   61.9760 H   0  0  0  0  0  0  0  0  0  0  0  0
   29.2801   35.2485   63.1703 H   0  0  0  0  0  0  0  0  0  0  0  0
   29.2911   36.9497   63.6936 H   0  0  0  0  0  0  0  0  0  0  0  0
   32.0090   38.2449   63.1053 H   0  0  0  0  0  0  0  0  0  0  0  0
   30.6343   38.3332   61.9565 H   0  0  0  0  0  0  0  0  0  0  0  0
   33.1830   40.3446   58.4331 H   0  0  0  0  0  0  0  0  0  0  0  0
   33.8925   39.8858   56.1271 H   0  0  0  0  0  0  0  0  0  0  0  0
   33.0112   35.7418   56.6343 H   0  0  0  0  0  0  0  0  0  0  0  0
  1  2  1  0  0  0  0
  1 19  1  0  0  0  0
  1 20  1  0  0  0  0
  1 21  1  0  0  0  0
  2  3  1  1  0  0  0
  2 18  1  0  0  0  0
  2  4  1  0  0  0  0
  4  5  1  0  0  0  0
  4 22  1  0  0  0  0
  4 23  1  0  0  0  0
  5  6  1  1  0  0  0
  5 17  1  0  0  0  0
  5  7  1  0  0  0  0
  7  8  1  0  0  0  0
  8 14  2  0  0  0  0
  8  9  1  0  0  0  0
  9 10  2  0  0  0  0
  9 24  1  0  0  0  0
 10 11  1  0  0  0  0
 10 25  1  0  0  0  0
 11 12  1  0  0  0  0
 11 13  2  0  0  0  0
 13 14  1  0  0  0  0
 13 26  1  0  0  0  0
 14 15  1  0  0  0  0
 15 16  2  0  0  0  0
 15 17  1  0  0  0  0
 17 18  1  0  0  0  0
M  END
$$$$
