ZINC000000042828      none
 OpenBabel11202420153D

 41 43  0  0  0  0  0  0  0  0999 V2000
   33.9334   33.4372   56.8152 C   0  0  0  0  0  0  0  0  0  0  0  0
   32.6044   34.1881   56.7106 C   0  0  0  0  0  0  0  0  0  0  0  0
   32.7125   35.4715   57.4085 N   0  0  0  0  0  0  0  0  0  0  0  0
   32.4315   35.7098   58.7181 C   0  0  0  0  0  0  0  0  0  0  0  0
   31.8700   34.5052   59.8749 S   0  0  0  0  0  0  0  0  0  0  0  0
   31.7212   35.5363   61.3551 C   0  0  0  0  0  0  0  0  0  0  0  0
   30.7185   36.6621   61.0937 C   0  0  0  0  0  0  0  0  0  0  0  0
   30.5948   37.5206   62.3261 C   0  0  0  0  0  0  0  0  0  0  0  0
   29.4054   38.1701   62.5993 C   0  0  0  0  0  0  0  0  0  0  0  0
   29.2904   38.9536   63.7323 C   0  0  0  0  0  0  0  0  0  0  0  0
   30.3675   39.0958   64.5868 C   0  0  0  0  0  0  0  0  0  0  0  0
   31.5586   38.4508   64.3106 C   0  0  0  0  0  0  0  0  0  0  0  0
   31.6721   37.6630   63.1803 C   0  0  0  0  0  0  0  0  0  0  0  0
   32.6460   36.9826   58.9867 N   0  0  0  0  0  0  0  0  0  0  0  0
   33.0659   37.6152   57.8904 C   0  0  0  0  0  0  0  0  0  0  0  0
   33.1207   36.6809   56.8613 C   0  0  0  0  0  0  0  0  0  0  0  0
   33.5378   37.0912   55.5831 C   0  0  0  0  0  0  0  0  0  0  0  0
   33.5981   36.2887   54.6679 O   0  0  0  0  0  0  0  0  0  0  0  0
   33.8759   38.3816   55.3815 N   0  0  0  0  0  0  0  0  0  0  0  0
   34.1643   38.6677   54.5007 H   0  0  0  0  0  0  0  0  0  0  0  0
   33.8208   39.2764   56.3830 C   0  0  0  0  0  0  0  0  0  0  0  0
   34.1340   40.4309   56.1647 O   0  0  0  0  0  0  0  0  0  0  0  0
   33.4264   38.9260   57.6217 N   0  0  0  0  0  0  0  0  0  0  0  0
   33.3780   39.9312   58.6863 C   0  0  0  0  0  0  0  0  0  0  0  0
   34.1696   33.2613   57.8647 H   0  0  0  0  0  0  0  0  0  0  0  0
   33.8530   32.4822   56.2959 H   0  0  0  0  0  0  0  0  0  0  0  0
   34.7243   34.0330   56.3597 H   0  0  0  0  0  0  0  0  0  0  0  0
   31.8135   33.5921   57.1662 H   0  0  0  0  0  0  0  0  0  0  0  0
   32.3682   34.3638   55.6611 H   0  0  0  0  0  0  0  0  0  0  0  0
   31.3736   34.9266   62.1891 H   0  0  0  0  0  0  0  0  0  0  0  0
   32.6933   35.9648   61.5986 H   0  0  0  0  0  0  0  0  0  0  0  0
   31.0662   37.2718   60.2597 H   0  0  0  0  0  0  0  0  0  0  0  0
   29.7464   36.2336   60.8502 H   0  0  0  0  0  0  0  0  0  0  0  0
   28.5650   38.0623   61.9297 H   0  0  0  0  0  0  0  0  0  0  0  0
   28.3598   39.4578   63.9480 H   0  0  0  0  0  0  0  0  0  0  0  0
   30.2789   39.7109   65.4701 H   0  0  0  0  0  0  0  0  0  0  0  0
   32.4005   38.5622   64.9780 H   0  0  0  0  0  0  0  0  0  0  0  0
   32.6026   37.1591   62.9645 H   0  0  0  0  0  0  0  0  0  0  0  0
   34.3391   39.9640   59.1991 H   0  0  0  0  0  0  0  0  0  0  0  0
   33.1635   40.9085   58.2537 H   0  0  0  0  0  0  0  0  0  0  0  0
   32.5950   39.6693   59.3979 H   0  0  0  0  0  0  0  0  0  0  0  0
  1  2  1  0  0  0  0
  1 25  1  0  0  0  0
  1 26  1  0  0  0  0
  1 27  1  0  0  0  0
  2  3  1  0  0  0  0
  2 28  1  0  0  0  0
  2 29  1  0  0  0  0
  3 16  1  0  0  0  0
  3  4  1  0  0  0  0
  4  5  1  0  0  0  0
  4 14  2  0  0  0  0
  5  6  1  0  0  0  0
  6  7  1  0  0  0  0
  6 30  1  0  0  0  0
  6 31  1  0  0  0  0
  7  8  1  0  0  0  0
  7 32  1  0  0  0  0
  7 33  1  0  0  0  0
  8 13  2  0  0  0  0
  8  9  1  0  0  0  0
  9 10  2  0  0  0  0
  9 34  1  0  0  0  0
 10 11  1  0  0  0  0
 10 35  1  0  0  0  0
 11 12  2  0  0  0  0
 11 36  1  0  0  0  0
 12 13  1  0  0  0  0
 12 37  1  0  0  0  0
 13 38  1  0  0  0  0
 14 15  1  0  0  0  0
 15 23  1  0  0  0  0
 15 16  2  0  0  0  0
 16 17  1  0  0  0  0
 17 18  2  0  0  0  0
 17 19  1  0  0  0  0
 19 20  1  0  0  0  0
 19 21  1  0  0  0  0
 21 22  2  0  0  0  0
 21 23  1  0  0  0  0
 23 24  1  0  0  0  0
 24 39  1  0  0  0  0
 24 40  1  0  0  0  0
 24 41  1  0  0  0  0
M  END
$$$$
