ZINC000000029410      none
 OpenBabel11202420163D

 42 43  0  0  0  0  0  0  0  0999 V2000
   31.7700   35.4337   67.1336 C   0  0  0  0  0  0  0  0  0  0  0  0
   32.0479   36.3287   65.9242 C   0  0  0  0  0  0  0  0  0  0  0  0
   30.7837   36.8611   65.4097 N   0  0  0  0  0  0  0  0  0  0  0  0
   30.2618   38.1310   65.9205 C   0  0  0  0  0  0  0  0  0  0  0  0
   31.2723   39.2460   65.6436 C   0  0  0  0  0  0  0  0  0  0  0  0
   30.7272   40.5723   66.1770 C   0  0  0  0  0  0  0  0  0  0  0  0
   30.4940   40.4584   67.6848 C   0  0  0  0  0  0  0  0  0  0  0  0
   29.4835   39.3435   67.9618 C   0  0  0  0  0  0  0  0  0  0  0  0
   30.0286   38.0170   67.4283 C   0  0  0  0  0  0  0  0  0  0  0  0
   29.9447   36.0272   64.2508 S   0  0  0  0  0  0  0  0  0  0  0  0
   28.5907   36.4449   64.3570 O   0  0  0  0  0  0  0  0  0  0  0  0
   30.3502   34.6697   64.3607 O   0  0  0  0  0  0  0  0  0  0  0  0
   30.5183   36.5925   62.6836 C   0  0  0  0  0  0  0  0  0  0  0  0
   29.6676   36.5894   61.5939 C   0  0  0  0  0  0  0  0  0  0  0  0
   30.1193   37.0276   60.3632 C   0  0  0  0  0  0  0  0  0  0  0  0
   31.4186   37.4788   60.2244 C   0  0  0  0  0  0  0  0  0  0  0  0
   31.9095   37.9615   58.8838 C   0  0  0  0  0  0  0  0  0  0  0  0
   32.2692   37.4819   61.3140 C   0  0  0  0  0  0  0  0  0  0  0  0
   31.8191   37.0387   62.5436 C   0  0  0  0  0  0  0  0  0  0  0  0
   31.2282   34.5447   66.8108 H   0  0  0  0  0  0  0  0  0  0  0  0
   32.7139   35.1379   67.5911 H   0  0  0  0  0  0  0  0  0  0  0  0
   31.1698   35.9813   67.8603 H   0  0  0  0  0  0  0  0  0  0  0  0
   32.5398   35.7452   65.1459 H   0  0  0  0  0  0  0  0  0  0  0  0
   32.6946   37.1535   66.2234 H   0  0  0  0  0  0  0  0  0  0  0  0
   29.3198   38.3629   65.4237 H   0  0  0  0  0  0  0  0  0  0  0  0
   32.2144   39.0142   66.1404 H   0  0  0  0  0  0  0  0  0  0  0  0
   31.4384   39.3272   64.5694 H   0  0  0  0  0  0  0  0  0  0  0  0
   29.7851   40.8042   65.6801 H   0  0  0  0  0  0  0  0  0  0  0  0
   31.4471   41.3667   65.9798 H   0  0  0  0  0  0  0  0  0  0  0  0
   30.1057   41.4033   68.0650 H   0  0  0  0  0  0  0  0  0  0  0  0
   31.4361   40.2265   68.1817 H   0  0  0  0  0  0  0  0  0  0  0  0
   28.5414   39.5752   67.4650 H   0  0  0  0  0  0  0  0  0  0  0  0
   29.3173   39.2621   69.0360 H   0  0  0  0  0  0  0  0  0  0  0  0
   29.3087   37.2227   67.6257 H   0  0  0  0  0  0  0  0  0  0  0  0
   30.9707   37.7852   67.9251 H   0  0  0  0  0  0  0  0  0  0  0  0
   28.6514   36.2405   61.7033 H   0  0  0  0  0  0  0  0  0  0  0  0
   29.4560   37.0210   59.5109 H   0  0  0  0  0  0  0  0  0  0  0  0
   32.3298   37.1235   58.3276 H   0  0  0  0  0  0  0  0  0  0  0  0
   31.0771   38.3880   58.3242 H   0  0  0  0  0  0  0  0  0  0  0  0
   32.6766   38.7219   59.0301 H   0  0  0  0  0  0  0  0  0  0  0  0
   33.2857   37.8303   61.2045 H   0  0  0  0  0  0  0  0  0  0  0  0
   32.4838   37.0408   63.3948 H   0  0  0  0  0  0  0  0  0  0  0  0
  1  2  1  0  0  0  0
  1 20  1  0  0  0  0
  1 21  1  0  0  0  0
  1 22  1  0  0  0  0
  2  3  1  0  0  0  0
  2 23  1  0  0  0  0
  2 24  1  0  0  0  0
  3  4  1  0  0  0  0
  3 10  1  0  0  0  0
  4  9  1  0  0  0  0
  4  5  1  0  0  0  0
  4 25  1  0  0  0  0
  5  6  1  0  0  0  0
  5 26  1  0  0  0  0
  5 27  1  0  0  0  0
  6  7  1  0  0  0  0
  6 28  1  0  0  0  0
  6 29  1  0  0  0  0
  7  8  1  0  0  0  0
  7 30  1  0  0  0  0
  7 31  1  0  0  0  0
  8  9  1  0  0  0  0
  8 32  1  0  0  0  0
  8 33  1  0  0  0  0
  9 34  1  0  0  0  0
  9 35  1  0  0  0  0
 10 11  2  0  0  0  0
 10 12  2  0  0  0  0
 10 13  1  0  0  0  0
 13 19  2  0  0  0  0
 13 14  1  0  0  0  0
 14 15  2  0  0  0  0
 14 36  1  0  0  0  0
 15 16  1  0  0  0  0
 15 37  1  0  0  0  0
 16 17  1  0  0  0  0
 16 18  2  0  0  0  0
 17 38  1  0  0  0  0
 17 39  1  0  0  0  0
 17 40  1  0  0  0  0
 18 19  1  0  0  0  0
 18 41  1  0  0  0  0
 19 42  1  0  0  0  0
M  END
$$$$
