ZINC000000031865      none
 OpenBabel11202420163D

 34 36  0  0  0  0  0  0  0  0999 V2000
   34.6366   39.4220   55.0997 C   0  0  0  0  0  0  0  0  0  0  0  0
   34.0166   38.5472   56.0980 N   0  0  0  0  0  0  0  0  0  0  0  0
   33.7285   39.0331   57.3256 C   0  0  0  0  0  0  0  0  0  0  0  0
   33.9768   40.1888   57.6146 O   0  0  0  0  0  0  0  0  0  0  0  0
   33.1030   38.1299   58.2995 C   0  0  0  0  0  0  0  0  0  0  0  0
   32.7679   38.5672   59.5988 C   0  0  0  0  0  0  0  0  0  0  0  0
   32.1915   37.6751   60.4597 C   0  0  0  0  0  0  0  0  0  0  0  0
   31.8430   38.0705   61.7597 N   0  0  0  0  0  0  0  0  0  0  0  0
   32.3908   37.4492   62.8228 C   0  0  0  0  0  0  0  0  0  0  0  0
   33.1881   36.5448   62.6549 O   0  0  0  0  0  0  0  0  0  0  0  0
   32.0267   37.8624   64.1811 C   0  0  0  0  0  0  0  0  0  0  0  0
   31.1431   38.8556   64.4975 C   0  0  0  0  0  0  0  0  0  0  0  0
   30.9874   39.0336   65.8519 C   0  0  0  0  0  0  0  0  0  0  0  0
   31.7170   38.2157   66.6195 C   0  0  0  0  0  0  0  0  0  0  0  0
   32.6510   37.1543   65.6645 S   0  0  0  0  0  0  0  0  0  0  0  0
   31.9497   36.3525   60.0283 C   0  0  0  0  0  0  0  0  0  0  0  0
   31.4360   35.5551   60.7932 O   0  0  0  0  0  0  0  0  0  0  0  0
   32.2783   35.9613   58.7841 O   0  0  0  0  0  0  0  0  0  0  0  0
   32.8445   36.8139   57.9187 C   0  0  0  0  0  0  0  0  0  0  0  0
   33.1784   36.4156   56.6526 N   0  0  0  0  0  0  0  0  0  0  0  0
   32.9130   35.0359   56.2375 C   0  0  0  0  0  0  0  0  0  0  0  0
   33.7458   37.2694   55.7848 C   0  0  0  0  0  0  0  0  0  0  0  0
   34.0251   36.8698   54.6713 O   0  0  0  0  0  0  0  0  0  0  0  0
   33.8593   39.9181   54.5185 H   0  0  0  0  0  0  0  0  0  0  0  0
   35.2638   38.8278   54.4352 H   0  0  0  0  0  0  0  0  0  0  0  0
   35.2480   40.1712   55.6027 H   0  0  0  0  0  0  0  0  0  0  0  0
   32.9627   39.5839   59.9065 H   0  0  0  0  0  0  0  0  0  0  0  0
   31.2076   38.7912   61.8935 H   0  0  0  0  0  0  0  0  0  0  0  0
   30.6196   39.4426   63.7575 H   0  0  0  0  0  0  0  0  0  0  0  0
   30.3244   39.7789   66.2659 H   0  0  0  0  0  0  0  0  0  0  0  0
   31.7120   38.2236   67.6994 H   0  0  0  0  0  0  0  0  0  0  0  0
   33.2408   34.8971   55.2073 H   0  0  0  0  0  0  0  0  0  0  0  0
   33.4567   34.3501   56.8872 H   0  0  0  0  0  0  0  0  0  0  0  0
   31.8443   34.8341   56.3091 H   0  0  0  0  0  0  0  0  0  0  0  0
  1  2  1  0  0  0  0
  1 24  1  0  0  0  0
  1 25  1  0  0  0  0
  1 26  1  0  0  0  0
  2 22  1  0  0  0  0
  2  3  1  0  0  0  0
  3  4  2  0  0  0  0
  3  5  1  0  0  0  0
  5 19  2  0  0  0  0
  5  6  1  0  0  0  0
  6  7  2  0  0  0  0
  6 27  1  0  0  0  0
  7  8  1  0  0  0  0
  7 16  1  0  0  0  0
  8  9  1  0  0  0  0
  8 28  1  0  0  0  0
  9 10  2  0  0  0  0
  9 11  1  0  0  0  0
 11 15  1  0  0  0  0
 11 12  2  0  0  0  0
 12 13  1  0  0  0  0
 12 29  1  0  0  0  0
 13 14  2  0  0  0  0
 13 30  1  0  0  0  0
 14 15  1  0  0  0  0
 14 31  1  0  0  0  0
 16 17  2  0  0  0  0
 16 18  1  0  0  0  0
 18 19  1  0  0  0  0
 19 20  1  0  0  0  0
 20 21  1  0  0  0  0
 20 22  1  0  0  0  0
 21 32  1  0  0  0  0
 21 33  1  0  0  0  0
 21 34  1  0  0  0  0
 22 23  2  0  0  0  0
M  END
$$$$
