ZINC000000041000      none
 OpenBabel11202420153D

 33 35  0  0  1  0  0  0  0  0999 V2000
   29.2232   33.1849   64.7613 C   0  0  0  0  0  0  0  0  0  0  0  0
   28.9905   34.6282   64.3103 C   0  0  0  0  0  0  0  0  0  0  0  0
   30.3387   35.3161   64.0860 C   0  0  2  0  0  0  0  0  0  0  0  0
   30.9096   34.7922   63.3194 H   0  0  0  0  0  0  0  0  0  0  0  0
   31.2775   35.3931   65.6387 S   0  0  0  0  0  0  0  0  0  0  0  0
   31.3680   37.1656   65.7253 C   0  0  0  0  0  0  0  0  0  0  0  0
   31.8812   38.0544   66.5437 N   0  0  0  0  0  0  0  0  0  0  0  0
   31.6173   39.4087   66.0580 C   0  0  0  0  0  0  0  0  0  0  0  0
   30.8283   39.1905   64.7586 C   0  0  0  0  0  0  0  0  0  0  0  0
   30.7313   37.7062   64.6511 N   0  0  0  0  0  0  0  0  0  0  0  0
   30.1331   36.7761   63.6932 C   0  0  2  0  0  0  0  0  0  0  0  0
   28.7310   37.0387   63.6084 O   0  0  0  0  0  0  0  0  0  0  0  0
   30.7509   37.0076   62.3383 C   0  0  0  0  0  0  0  0  0  0  0  0
   29.9959   36.8270   61.1946 C   0  0  0  0  0  0  0  0  0  0  0  0
   30.5604   37.0447   59.9519 C   0  0  0  0  0  0  0  0  0  0  0  0
   31.8847   37.4326   59.8525 C   0  0  0  0  0  0  0  0  0  0  0  0
   32.5966   37.6988   58.2916 Cl  0  0  0  0  0  0  0  0  0  0  0  0
   32.6415   37.6078   60.9973 C   0  0  0  0  0  0  0  0  0  0  0  0
   32.0743   37.3952   62.2396 C   0  0  0  0  0  0  0  0  0  0  0  0
   28.2630   32.6947   64.9211 H   0  0  0  0  0  0  0  0  0  0  0  0
   29.7810   32.6495   63.9929 H   0  0  0  0  0  0  0  0  0  0  0  0
   29.7918   33.1819   65.6913 H   0  0  0  0  0  0  0  0  0  0  0  0
   28.4328   35.1636   65.0788 H   0  0  0  0  0  0  0  0  0  0  0  0
   28.4221   34.6310   63.3802 H   0  0  0  0  0  0  0  0  0  0  0  0
   32.5523   39.9306   65.8542 H   0  0  0  0  0  0  0  0  0  0  0  0
   31.0193   39.9658   66.7792 H   0  0  0  0  0  0  0  0  0  0  0  0
   31.3706   39.6019   63.9073 H   0  0  0  0  0  0  0  0  0  0  0  0
   29.8358   39.6352   64.8307 H   0  0  0  0  0  0  0  0  0  0  0  0
   28.2523   36.8900   64.4353 H   0  0  0  0  0  0  0  0  0  0  0  0
   28.9633   36.5199   61.2722 H   0  0  0  0  0  0  0  0  0  0  0  0
   29.9691   36.9078   59.0586 H   0  0  0  0  0  0  0  0  0  0  0  0
   33.6754   37.9102   60.9203 H   0  0  0  0  0  0  0  0  0  0  0  0
   32.6650   37.5316   63.1334 H   0  0  0  0  0  0  0  0  0  0  0  0
  1  2  1  0  0  0  0
  1 20  1  0  0  0  0
  1 21  1  0  0  0  0
  1 22  1  0  0  0  0
  2  3  1  0  0  0  0
  2 23  1  0  0  0  0
  2 24  1  0  0  0  0
  3  4  1  6  0  0  0
  3 11  1  0  0  0  0
  3  5  1  0  0  0  0
  5  6  1  0  0  0  0
  6 10  1  0  0  0  0
  6  7  2  0  0  0  0
  7  8  1  0  0  0  0
  8  9  1  0  0  0  0
  8 25  1  0  0  0  0
  8 26  1  0  0  0  0
  9 10  1  0  0  0  0
  9 27  1  0  0  0  0
  9 28  1  0  0  0  0
 10 11  1  0  0  0  0
 11 12  1  6  0  0  0
 11 13  1  0  0  0  0
 12 29  1  0  0  0  0
 13 19  2  0  0  0  0
 13 14  1  0  0  0  0
 14 15  2  0  0  0  0
 14 30  1  0  0  0  0
 15 16  1  0  0  0  0
 15 31  1  0  0  0  0
 16 17  1  0  0  0  0
 16 18  2  0  0  0  0
 18 19  1  0  0  0  0
 18 32  1  0  0  0  0
 19 33  1  0  0  0  0
M  END
$$$$
