ZINC000000017967      none
 OpenBabel11202420153D

 29 31  0  0  0  0  0  0  0  0999 V2000
   35.6678   37.8201   53.8483 C   0  0  0  0  0  0  0  0  0  0  0  0
   34.2518   37.6881   53.9887 O   0  0  0  0  0  0  0  0  0  0  0  0
   33.7963   37.0844   55.1217 C   0  0  0  0  0  0  0  0  0  0  0  0
   33.5689   35.7713   55.2934 C   0  0  0  0  0  0  0  0  0  0  0  0
   33.1069   35.5350   56.5796 N   0  0  0  0  0  0  0  0  0  0  0  0
   33.0343   36.7134   57.2601 C   0  0  0  0  0  0  0  0  0  0  0  0
   32.6398   37.0168   58.5625 C   0  0  0  0  0  0  0  0  0  0  0  0
   32.6873   38.3463   58.9421 C   0  0  0  0  0  0  0  0  0  0  0  0
   33.1058   39.3489   58.0791 C   0  0  0  0  0  0  0  0  0  0  0  0
   33.1265   40.6266   58.5177 F   0  0  0  0  0  0  0  0  0  0  0  0
   33.5024   39.0766   56.7806 C   0  0  0  0  0  0  0  0  0  0  0  0
   33.4618   37.7380   56.3785 C   0  0  0  0  0  0  0  0  0  0  0  0
   32.7643   34.1906   57.0687 C   0  0  0  0  0  0  0  0  0  0  0  0
   32.6018   33.2640   55.8588 C   0  0  0  0  0  0  0  0  0  0  0  0
   33.7730   33.3845   54.9796 N   0  0  0  0  0  0  0  0  0  0  0  0
   33.7732   34.6763   54.2722 C   0  0  0  0  0  0  0  0  0  0  0  0
   36.0611   38.4127   54.6743 H   0  0  0  0  0  0  0  0  0  0  0  0
   36.1276   36.8319   53.8587 H   0  0  0  0  0  0  0  0  0  0  0  0
   35.8946   38.3164   52.9047 H   0  0  0  0  0  0  0  0  0  0  0  0
   32.3115   36.2472   59.2453 H   0  0  0  0  0  0  0  0  0  0  0  0
   32.3877   38.6130   59.9448 H   0  0  0  0  0  0  0  0  0  0  0  0
   33.8275   39.8596   56.1116 H   0  0  0  0  0  0  0  0  0  0  0  0
   31.8302   34.2306   57.6288 H   0  0  0  0  0  0  0  0  0  0  0  0
   33.5622   33.8188   57.7115 H   0  0  0  0  0  0  0  0  0  0  0  0
   31.7041   33.5425   55.3069 H   0  0  0  0  0  0  0  0  0  0  0  0
   32.5110   32.2335   56.2022 H   0  0  0  0  0  0  0  0  0  0  0  0
   34.6291   33.2562   55.4980 H   0  0  0  0  0  0  0  0  0  0  0  0
   34.7280   34.8186   53.7660 H   0  0  0  0  0  0  0  0  0  0  0  0
   32.9630   34.6970   53.5434 H   0  0  0  0  0  0  0  0  0  0  0  0
  1  2  1  0  0  0  0
  1 17  1  0  0  0  0
  1 18  1  0  0  0  0
  1 19  1  0  0  0  0
  2  3  1  0  0  0  0
  3 12  1  0  0  0  0
  3  4  2  0  0  0  0
  4 16  1  0  0  0  0
  4  5  1  0  0  0  0
  5  6  1  0  0  0  0
  5 13  1  0  0  0  0
  6 12  2  0  0  0  0
  6  7  1  0  0  0  0
  7  8  2  0  0  0  0
  7 20  1  0  0  0  0
  8  9  1  0  0  0  0
  8 21  1  0  0  0  0
  9 10  1  0  0  0  0
  9 11  2  0  0  0  0
 11 12  1  0  0  0  0
 11 22  1  0  0  0  0
 13 14  1  0  0  0  0
 13 23  1  0  0  0  0
 13 24  1  0  0  0  0
 14 15  1  0  0  0  0
 14 25  1  0  0  0  0
 14 26  1  0  0  0  0
 15 16  1  0  0  0  0
 15 27  1  0  0  0  0
 16 28  1  0  0  0  0
 16 29  1  0  0  0  0
M  END
$$$$
