ZINC000000040100      none
 OpenBabel11202420153D

 26 26  0  0  0  0  0  0  0  0999 V2000
   32.8220   34.1738   56.3895 C   0  0  0  0  0  0  0  0  0  0  0  0
   32.9806   35.5830   56.8997 C   0  0  0  0  0  0  0  0  0  0  0  0
   33.5016   36.5536   56.0632 C   0  0  0  0  0  0  0  0  0  0  0  0
   33.6477   37.8477   56.5306 C   0  0  0  0  0  0  0  0  0  0  0  0
   34.2114   38.9294   55.6456 C   0  0  0  0  0  0  0  0  0  0  0  0
   33.2584   38.1272   57.8459 C   0  0  0  0  0  0  0  0  0  0  0  0
   33.3881   39.4500   58.3789 C   0  0  0  0  0  0  0  0  0  0  0  0
   33.4910   40.4994   58.8018 N   0  0  0  0  0  0  0  0  0  0  0  0
   32.7381   37.0881   58.6322 C   0  0  0  0  0  0  0  0  0  0  0  0
   32.3546   37.3362   59.9077 O   0  0  0  0  0  0  0  0  0  0  0  0
   30.9974   37.7345   60.1112 C   0  0  0  0  0  0  0  0  0  0  0  0
   30.7566   37.9648   61.5809 C   0  0  0  0  0  0  0  0  0  0  0  0
   30.9356   36.9581   62.4589 N   0  0  0  0  0  0  0  0  0  0  0  0
   30.4015   39.0559   61.9735 O   0  0  0  0  0  0  0  0  0  0  0  0
   32.6197   35.8686   58.1360 N   0  0  0  0  0  0  0  0  0  0  0  0
   31.8366   34.0598   55.9378 H   0  0  0  0  0  0  0  0  0  0  0  0
   33.5897   33.9691   55.6432 H   0  0  0  0  0  0  0  0  0  0  0  0
   32.9251   33.4736   57.2183 H   0  0  0  0  0  0  0  0  0  0  0  0
   33.7916   36.3034   55.0534 H   0  0  0  0  0  0  0  0  0  0  0  0
   33.3999   39.4156   55.1042 H   0  0  0  0  0  0  0  0  0  0  0  0
   34.7319   39.6656   56.2581 H   0  0  0  0  0  0  0  0  0  0  0  0
   34.9103   38.4893   54.9342 H   0  0  0  0  0  0  0  0  0  0  0  0
   30.8030   38.6559   59.5624 H   0  0  0  0  0  0  0  0  0  0  0  0
   30.3310   36.9503   59.7523 H   0  0  0  0  0  0  0  0  0  0  0  0
   31.2196   36.0853   62.1449 H   0  0  0  0  0  0  0  0  0  0  0  0
   30.7805   37.1063   63.4049 H   0  0  0  0  0  0  0  0  0  0  0  0
  1  2  1  0  0  0  0
  1 16  1  0  0  0  0
  1 17  1  0  0  0  0
  1 18  1  0  0  0  0
  2 15  2  0  0  0  0
  2  3  1  0  0  0  0
  3  4  2  0  0  0  0
  3 19  1  0  0  0  0
  4  5  1  0  0  0  0
  4  6  1  0  0  0  0
  5 20  1  0  0  0  0
  5 21  1  0  0  0  0
  5 22  1  0  0  0  0
  6  7  1  0  0  0  0
  6  9  2  0  0  0  0
  7  8  3  0  0  0  0
  9 10  1  0  0  0  0
  9 15  1  0  0  0  0
 10 11  1  0  0  0  0
 11 12  1  0  0  0  0
 11 23  1  0  0  0  0
 11 24  1  0  0  0  0
 12 13  1  0  0  0  0
 12 14  2  0  0  0  0
 13 25  1  0  0  0  0
 13 26  1  0  0  0  0
M  END
$$$$
