ZINC000000046530      none
 OpenBabel11202420153D

 38 40  0  0  0  0  0  0  0  0999 V2000
   34.5887   37.8909   54.5348 C   0  0  0  0  0  0  0  0  0  0  0  0
   33.9641   37.9961   55.9022 C   0  0  0  0  0  0  0  0  0  0  0  0
   33.8084   39.2521   56.5054 C   0  0  0  0  0  0  0  0  0  0  0  0
   33.2429   39.3384   57.7422 C   0  0  0  0  0  0  0  0  0  0  0  0
   32.8235   38.1651   58.3965 C   0  0  0  0  0  0  0  0  0  0  0  0
   32.2721   38.2575   59.6055 N   0  0  0  0  0  0  0  0  0  0  0  0
   31.8557   37.1819   60.2629 C   0  0  0  0  0  0  0  0  0  0  0  0
   31.1248   37.3451   61.8577 S   0  0  0  0  0  0  0  0  0  0  0  0
   32.2783   36.3503   62.8355 C   0  0  0  0  0  0  0  0  0  0  0  0
   32.1561   36.7244   64.2901 C   0  0  0  0  0  0  0  0  0  0  0  0
   33.2933   36.9144   65.0528 C   0  0  0  0  0  0  0  0  0  0  0  0
   33.1813   37.2624   66.3861 C   0  0  0  0  0  0  0  0  0  0  0  0
   31.9320   37.4101   66.9591 C   0  0  0  0  0  0  0  0  0  0  0  0
   30.7948   37.2150   66.1978 C   0  0  0  0  0  0  0  0  0  0  0  0
   30.9069   36.8721   64.8633 C   0  0  0  0  0  0  0  0  0  0  0  0
   32.0071   35.9067   59.6783 C   0  0  0  0  0  0  0  0  0  0  0  0
   31.5608   34.6998   60.3833 C   0  0  0  0  0  0  0  0  0  0  0  0
   32.4135   33.7658   60.6746 N   0  0  0  0  0  0  0  0  0  0  0  0
   31.9827   32.6011   61.3550 O   0  0  0  0  0  0  0  0  0  0  0  0
   32.5919   35.8201   58.3984 C   0  0  0  0  0  0  0  0  0  0  0  0
   32.7365   34.7374   57.8553 O   0  0  0  0  0  0  0  0  0  0  0  0
   32.9892   36.9543   57.7827 N   0  0  0  0  0  0  0  0  0  0  0  0
   33.5556   36.8795   56.5449 C   0  0  0  0  0  0  0  0  0  0  0  0
   33.8109   37.9570   53.7741 H   0  0  0  0  0  0  0  0  0  0  0  0
   35.3016   38.7040   54.3974 H   0  0  0  0  0  0  0  0  0  0  0  0
   35.1055   36.9354   54.4441 H   0  0  0  0  0  0  0  0  0  0  0  0
   34.1347   40.1453   55.9933 H   0  0  0  0  0  0  0  0  0  0  0  0
   33.1184   40.3003   58.2174 H   0  0  0  0  0  0  0  0  0  0  0  0
   32.0423   35.2935   62.7111 H   0  0  0  0  0  0  0  0  0  0  0  0
   33.2972   36.5376   62.4965 H   0  0  0  0  0  0  0  0  0  0  0  0
   34.2692   36.7947   64.6062 H   0  0  0  0  0  0  0  0  0  0  0  0
   34.0697   37.4144   66.9809 H   0  0  0  0  0  0  0  0  0  0  0  0
   31.8444   37.6775   68.0019 H   0  0  0  0  0  0  0  0  0  0  0  0
   29.8189   37.3300   66.6457 H   0  0  0  0  0  0  0  0  0  0  0  0
   30.0184   36.7193   64.2686 H   0  0  0  0  0  0  0  0  0  0  0  0
   30.5227   34.5887   60.6596 H   0  0  0  0  0  0  0  0  0  0  0  0
   32.6883   31.9629   61.5280 H   0  0  0  0  0  0  0  0  0  0  0  0
   33.6797   35.9163   56.0723 H   0  0  0  0  0  0  0  0  0  0  0  0
  1  2  1  0  0  0  0
  1 24  1  0  0  0  0
  1 25  1  0  0  0  0
  1 26  1  0  0  0  0
  2 23  2  0  0  0  0
  2  3  1  0  0  0  0
  3  4  2  0  0  0  0
  3 27  1  0  0  0  0
  4  5  1  0  0  0  0
  4 28  1  0  0  0  0
  5 22  1  0  0  0  0
  5  6  2  0  0  0  0
  6  7  1  0  0  0  0
  7  8  1  0  0  0  0
  7 16  2  0  0  0  0
  8  9  1  0  0  0  0
  9 10  1  0  0  0  0
  9 29  1  0  0  0  0
  9 30  1  0  0  0  0
 10 15  2  0  0  0  0
 10 11  1  0  0  0  0
 11 12  2  0  0  0  0
 11 31  1  0  0  0  0
 12 13  1  0  0  0  0
 12 32  1  0  0  0  0
 13 14  2  0  0  0  0
 13 33  1  0  0  0  0
 14 15  1  0  0  0  0
 14 34  1  0  0  0  0
 15 35  1  0  0  0  0
 16 17  1  0  0  0  0
 16 20  1  0  0  0  0
 17 18  2  0  0  0  0
 17 36  1  0  0  0  0
 18 19  1  0  0  0  0
 19 37  1  0  0  0  0
 20 21  2  0  0  0  0
 20 22  1  0  0  0  0
 22 23  1  0  0  0  0
 23 38  1  0  0  0  0
M  END
$$$$
