ZINC000000004091      none
 OpenBabel11202420153D

 42 44  0  0  0  0  0  0  0  0999 V2000
   29.8670   38.4742   67.2090 O   0  0  0  0  0  0  0  0  0  0  0  0
   30.8613   37.8228   66.9681 C   0  0  0  0  0  0  0  0  0  0  0  0
   31.9975   37.5850   67.9382 C   0  0  0  0  0  0  0  0  0  0  0  0
   33.1585   37.0854   67.0474 C   0  0  0  0  0  0  0  0  0  0  0  0
   32.3943   36.4907   65.8415 C   0  0  0  0  0  0  0  0  0  0  0  0
   31.1138   37.2066   65.8005 N   0  0  0  0  0  0  0  0  0  0  0  0
   30.2225   37.2403   64.6382 C   0  0  0  0  0  0  0  0  0  0  0  0
   31.0511   37.1308   63.3566 C   0  0  0  0  0  0  0  0  0  0  0  0
   30.2305   37.6459   62.1711 C   0  0  0  0  0  0  0  0  0  0  0  0
   31.0412   37.4774   60.8841 C   0  0  0  0  0  0  0  0  0  0  0  0
   31.3716   36.0592   60.6944 N   0  0  0  0  0  0  0  0  0  0  0  0
   31.9925   35.8531   59.4732 C   0  0  0  0  0  0  0  0  0  0  0  0
   32.3935   34.5718   59.0884 C   0  0  0  0  0  0  0  0  0  0  0  0
   33.0034   34.4175   57.8592 C   0  0  0  0  0  0  0  0  0  0  0  0
   33.1917   35.4826   57.0925 N   0  0  0  0  0  0  0  0  0  0  0  0
   32.8065   36.6794   57.4864 C   0  0  0  0  0  0  0  0  0  0  0  0
   33.0422   37.8601   56.5800 C   0  0  0  0  0  0  0  0  0  0  0  0
   33.6712   37.4292   55.4070 F   0  0  0  0  0  0  0  0  0  0  0  0
   31.8168   38.4548   56.2607 F   0  0  0  0  0  0  0  0  0  0  0  0
   33.8576   38.7921   57.2309 F   0  0  0  0  0  0  0  0  0  0  0  0
   32.2211   36.8728   58.6511 N   0  0  0  0  0  0  0  0  0  0  0  0
   32.1995   35.5547   61.7974 C   0  0  0  0  0  0  0  0  0  0  0  0
   31.4233   35.6659   63.1116 C   0  0  0  0  0  0  0  0  0  0  0  0
   32.2727   38.5136   68.4383 H   0  0  0  0  0  0  0  0  0  0  0  0
   31.7216   36.8259   68.6701 H   0  0  0  0  0  0  0  0  0  0  0  0
   33.7978   37.9127   66.7396 H   0  0  0  0  0  0  0  0  0  0  0  0
   33.7376   36.3154   67.5570 H   0  0  0  0  0  0  0  0  0  0  0  0
   32.2255   35.4238   65.9873 H   0  0  0  0  0  0  0  0  0  0  0  0
   32.9522   36.6625   64.9210 H   0  0  0  0  0  0  0  0  0  0  0  0
   29.6677   38.1785   64.6330 H   0  0  0  0  0  0  0  0  0  0  0  0
   29.5240   36.4053   64.6917 H   0  0  0  0  0  0  0  0  0  0  0  0
   31.9592   37.7254   63.4569 H   0  0  0  0  0  0  0  0  0  0  0  0
   29.9987   38.7005   62.3197 H   0  0  0  0  0  0  0  0  0  0  0  0
   29.3041   37.0764   62.0949 H   0  0  0  0  0  0  0  0  0  0  0  0
   31.9608   38.0581   60.9555 H   0  0  0  0  0  0  0  0  0  0  0  0
   30.4540   37.8301   60.0362 H   0  0  0  0  0  0  0  0  0  0  0  0
   32.2265   33.7222   59.7340 H   0  0  0  0  0  0  0  0  0  0  0  0
   33.3227   33.4410   57.5263 H   0  0  0  0  0  0  0  0  0  0  0  0
   32.4535   34.5109   61.6129 H   0  0  0  0  0  0  0  0  0  0  0  0
   33.1136   36.1444   61.8646 H   0  0  0  0  0  0  0  0  0  0  0  0
   32.0437   35.3058   63.9324 H   0  0  0  0  0  0  0  0  0  0  0  0
   30.5158   35.0652   63.0503 H   0  0  0  0  0  0  0  0  0  0  0  0
  1  2  2  0  0  0  0
  2  6  1  0  0  0  0
  2  3  1  0  0  0  0
  3  4  1  0  0  0  0
  3 24  1  0  0  0  0
  3 25  1  0  0  0  0
  4  5  1  0  0  0  0
  4 26  1  0  0  0  0
  4 27  1  0  0  0  0
  5  6  1  0  0  0  0
  5 28  1  0  0  0  0
  5 29  1  0  0  0  0
  6  7  1  0  0  0  0
  7  8  1  0  0  0  0
  7 30  1  0  0  0  0
  7 31  1  0  0  0  0
  8 23  1  0  0  0  0
  8  9  1  0  0  0  0
  8 32  1  0  0  0  0
  9 10  1  0  0  0  0
  9 33  1  0  0  0  0
  9 34  1  0  0  0  0
 10 11  1  0  0  0  0
 10 35  1  0  0  0  0
 10 36  1  0  0  0  0
 11 12  1  0  0  0  0
 11 22  1  0  0  0  0
 12 21  2  0  0  0  0
 12 13  1  0  0  0  0
 13 14  2  0  0  0  0
 13 37  1  0  0  0  0
 14 15  1  0  0  0  0
 14 38  1  0  0  0  0
 15 16  2  0  0  0  0
 16 17  1  0  0  0  0
 16 21  1  0  0  0  0
 17 18  1  0  0  0  0
 17 19  1  0  0  0  0
 17 20  1  0  0  0  0
 22 23  1  0  0  0  0
 22 39  1  0  0  0  0
 22 40  1  0  0  0  0
 23 41  1  0  0  0  0
 23 42  1  0  0  0  0
M  END
$$$$
