ZINC000000048428      none
 OpenBabel11202420153D

 37 40  0  0  1  0  0  0  0  0999 V2000
   29.1331   32.6433   65.1258 C   0  0  0  0  0  0  0  0  0  0  0  0
   29.6926   33.5852   64.0909 C   0  0  0  0  0  0  0  0  0  0  0  0
   30.6366   33.1330   63.1869 C   0  0  0  0  0  0  0  0  0  0  0  0
   31.1525   33.9899   62.2367 C   0  0  0  0  0  0  0  0  0  0  0  0
   30.7205   35.3162   62.1895 C   0  0  0  0  0  0  0  0  0  0  0  0
   31.2695   36.2402   61.1742 C   0  0  0  0  0  0  0  0  0  0  0  0
   32.3124   36.9939   61.2959 N   0  0  0  0  0  0  0  0  0  0  0  0
   32.7352   37.8208   60.2790 N   0  0  0  0  0  0  0  0  0  0  0  0
   31.9001   37.7631   59.0650 C   0  0  1  0  0  0  0  0  0  0  0  0
   31.4480   38.7326   58.8556 H   0  0  0  0  0  0  0  0  0  0  0  0
   32.6994   37.2774   57.8834 C   0  0  0  0  0  0  0  0  0  0  0  0
   32.7641   35.9248   57.6033 C   0  0  0  0  0  0  0  0  0  0  0  0
   33.5031   35.4756   56.5215 C   0  0  0  0  0  0  0  0  0  0  0  0
   34.1713   36.3906   55.7108 C   0  0  0  0  0  0  0  0  0  0  0  0
   34.1021   37.7439   55.9974 C   0  0  0  0  0  0  0  0  0  0  0  0
   33.3665   38.1848   57.0822 C   0  0  0  0  0  0  0  0  0  0  0  0
   33.2940   39.6314   57.3863 N   0  0  0  0  0  0  0  0  0  0  0  0
   32.6468   40.0213   58.3418 O   0  0  0  0  0  0  0  0  0  0  0  0
   33.8816   40.4322   56.6813 O   0  0  0  0  0  0  0  0  0  0  0  0
   34.8141   35.7070   54.7196 O   0  0  0  0  0  0  0  0  0  0  0  0
   34.8763   34.3393   55.1765 C   0  0  0  0  0  0  0  0  0  0  0  0
   33.7301   34.2189   56.0396 O   0  0  0  0  0  0  0  0  0  0  0  0
   30.6263   36.5356   59.5441 S   0  0  0  0  0  0  0  0  0  0  0  0
   29.7724   35.7680   63.1087 C   0  0  0  0  0  0  0  0  0  0  0  0
   29.2606   34.8995   64.0504 C   0  0  0  0  0  0  0  0  0  0  0  0
   29.7488   32.6845   66.0252 H   0  0  0  0  0  0  0  0  0  0  0  0
   28.1127   32.9383   65.3715 H   0  0  0  0  0  0  0  0  0  0  0  0
   29.1334   31.6283   64.7314 H   0  0  0  0  0  0  0  0  0  0  0  0
   30.9699   32.1065   63.2245 H   0  0  0  0  0  0  0  0  0  0  0  0
   31.8887   33.6350   61.5307 H   0  0  0  0  0  0  0  0  0  0  0  0
   33.5152   38.3923   60.3548 H   0  0  0  0  0  0  0  0  0  0  0  0
   32.2418   35.2180   58.2310 H   0  0  0  0  0  0  0  0  0  0  0  0
   34.6224   38.4552   55.3731 H   0  0  0  0  0  0  0  0  0  0  0  0
   35.7954   34.1542   55.7325 H   0  0  0  0  0  0  0  0  0  0  0  0
   34.7950   33.6527   54.3337 H   0  0  0  0  0  0  0  0  0  0  0  0
   29.4373   36.7944   63.0803 H   0  0  0  0  0  0  0  0  0  0  0  0
   28.5239   35.2469   64.7598 H   0  0  0  0  0  0  0  0  0  0  0  0
  1  2  1  0  0  0  0
  1 26  1  0  0  0  0
  1 27  1  0  0  0  0
  1 28  1  0  0  0  0
  2 25  2  0  0  0  0
  2  3  1  0  0  0  0
  3  4  2  0  0  0  0
  3 29  1  0  0  0  0
  4  5  1  0  0  0  0
  4 30  1  0  0  0  0
  5  6  1  0  0  0  0
  5 24  2  0  0  0  0
  6 23  1  0  0  0  0
  6  7  2  0  0  0  0
  7  8  1  0  0  0  0
  8  9  1  0  0  0  0
  8 31  1  0  0  0  0
  9 10  1  6  0  0  0
  9 11  1  0  0  0  0
  9 23  1  0  0  0  0
 11 16  2  0  0  0  0
 11 12  1  0  0  0  0
 12 13  2  0  0  0  0
 12 32  1  0  0  0  0
 13 22  1  0  0  0  0
 13 14  1  0  0  0  0
 14 15  2  0  0  0  0
 14 20  1  0  0  0  0
 15 16  1  0  0  0  0
 15 33  1  0  0  0  0
 16 17  1  0  0  0  0
 17 18  2  0  0  0  0
 17 19  2  0  0  0  0
 20 21  1  0  0  0  0
 21 22  1  0  0  0  0
 21 34  1  0  0  0  0
 21 35  1  0  0  0  0
 24 25  1  0  0  0  0
 24 36  1  0  0  0  0
 25 37  1  0  0  0  0
M  END
$$$$
