ZINC000000036342      none
 OpenBabel11202420153D

 29 30  0  0  1  0  0  0  0  0999 V2000
   32.3139   34.1191   55.3535 C   0  0  0  0  0  0  0  0  0  0  0  0
   33.4614   34.6106   56.2382 C   0  0  0  0  0  0  0  0  0  0  0  0
   32.9321   35.6007   57.2434 C   0  0  0  0  0  0  0  0  0  0  0  0
   32.8982   36.9492   56.9388 C   0  0  0  0  0  0  0  0  0  0  0  0
   32.4144   37.8547   57.8578 C   0  0  0  0  0  0  0  0  0  0  0  0
   31.9485   37.4230   59.1010 C   0  0  0  0  0  0  0  0  0  0  0  0
   31.9894   36.0714   59.3967 C   0  0  0  0  0  0  0  0  0  0  0  0
   32.4736   35.1651   58.4718 C   0  0  0  0  0  0  0  0  0  0  0  0
   31.4301   35.4813   60.9655 S   0  0  0  0  0  0  0  0  0  0  0  0
   32.6219   35.2238   61.6953 O   0  0  0  0  0  0  0  0  0  0  0  0
   30.5185   34.4376   60.6510 O   0  0  0  0  0  0  0  0  0  0  0  0
   30.5514   36.9212   61.6516 C   0  0  1  0  0  0  0  0  0  0  0  0
   29.5767   37.0247   61.1746 H   0  0  0  0  0  0  0  0  0  0  0  0
   30.3803   36.7576   63.1632 C   0  0  0  0  0  0  0  0  0  0  0  0
   31.6383   36.6555   63.7665 F   0  0  0  0  0  0  0  0  0  0  0  0
   29.7045   37.8686   63.6790 F   0  0  0  0  0  0  0  0  0  0  0  0
   29.6416   35.5990   63.4261 F   0  0  0  0  0  0  0  0  0  0  0  0
   31.4173   38.1566   61.3513 C   0  0  0  0  0  0  0  0  0  0  0  0
   31.4654   38.3593   59.9474 O   0  0  0  0  0  0  0  0  0  0  0  0
   32.6968   33.4028   54.6264 H   0  0  0  0  0  0  0  0  0  0  0  0
   31.5574   33.6382   55.9735 H   0  0  0  0  0  0  0  0  0  0  0  0
   31.8703   34.9660   54.8302 H   0  0  0  0  0  0  0  0  0  0  0  0
   34.2179   35.0914   55.6182 H   0  0  0  0  0  0  0  0  0  0  0  0
   33.9051   33.7636   56.7614 H   0  0  0  0  0  0  0  0  0  0  0  0
   33.2554   37.2939   55.9796 H   0  0  0  0  0  0  0  0  0  0  0  0
   32.3911   38.9063   57.6127 H   0  0  0  0  0  0  0  0  0  0  0  0
   32.4931   34.1119   58.7103 H   0  0  0  0  0  0  0  0  0  0  0  0
   32.4262   37.9956   61.7312 H   0  0  0  0  0  0  0  0  0  0  0  0
   30.9827   39.0333   61.8315 H   0  0  0  0  0  0  0  0  0  0  0  0
  1  2  1  0  0  0  0
  1 20  1  0  0  0  0
  1 21  1  0  0  0  0
  1 22  1  0  0  0  0
  2  3  1  0  0  0  0
  2 23  1  0  0  0  0
  2 24  1  0  0  0  0
  3  8  2  0  0  0  0
  3  4  1  0  0  0  0
  4  5  2  0  0  0  0
  4 25  1  0  0  0  0
  5  6  1  0  0  0  0
  5 26  1  0  0  0  0
  6 19  1  0  0  0  0
  6  7  2  0  0  0  0
  7  8  1  0  0  0  0
  7  9  1  0  0  0  0
  8 27  1  0  0  0  0
  9 10  2  0  0  0  0
  9 11  2  0  0  0  0
  9 12  1  0  0  0  0
 12 13  1  6  0  0  0
 12 14  1  0  0  0  0
 12 18  1  0  0  0  0
 14 15  1  0  0  0  0
 14 16  1  0  0  0  0
 14 17  1  0  0  0  0
 18 19  1  0  0  0  0
 18 28  1  0  0  0  0
 18 29  1  0  0  0  0
M  END
$$$$
