ZINC000000003558      none
 OpenBabel11202420153D

 36 38  0  0  1  0  0  0  0  0999 V2000
   31.0893   37.1094   70.1752 N   0  0  0  0  0  0  0  0  0  0  0  0
   31.2746   36.9234   69.0700 C   0  0  0  0  0  0  0  0  0  0  0  0
   31.5083   36.6890   67.6767 C   0  0  0  0  0  0  0  0  0  0  0  0
   32.6919   37.1397   67.0913 C   0  0  0  0  0  0  0  0  0  0  0  0
   32.9117   36.9038   65.7468 C   0  0  0  0  0  0  0  0  0  0  0  0
   31.9243   36.2277   65.0199 C   0  0  0  0  0  0  0  0  0  0  0  0
   32.1089   35.9569   63.5778 C   0  0  0  0  0  0  0  0  0  0  0  0
   33.2291   35.8577   63.1166 O   0  0  0  0  0  0  0  0  0  0  0  0
   31.0351   35.8199   62.7750 N   0  0  0  0  0  0  0  0  0  0  0  0
   31.2180   35.5517   61.3464 C   0  0  2  0  0  0  0  0  0  0  0  0
   30.2456   35.4725   60.8604 H   0  0  0  0  0  0  0  0  0  0  0  0
   31.9956   34.2430   61.1620 C   0  0  0  0  0  0  0  0  0  0  0  0
   31.9609   33.8670   59.6821 C   0  0  0  0  0  0  0  0  0  0  0  0
   32.3919   35.0322   58.8304 C   0  0  0  0  0  0  0  0  0  0  0  0
   32.7751   34.7695   57.5212 C   0  0  0  0  0  0  0  0  0  0  0  0
   33.1755   35.7941   56.6891 C   0  0  0  0  0  0  0  0  0  0  0  0
   33.1957   37.0935   57.1607 C   0  0  0  0  0  0  0  0  0  0  0  0
   32.8165   37.3558   58.4591 C   0  0  0  0  0  0  0  0  0  0  0  0
   32.4155   36.3255   59.3001 C   0  0  0  0  0  0  0  0  0  0  0  0
   32.0218   36.6833   60.7093 C   0  0  0  0  0  0  0  0  0  0  0  0
   30.7651   35.8075   65.6764 C   0  0  0  0  0  0  0  0  0  0  0  0
   30.5951   36.0457   66.9577 N   0  0  0  0  0  0  0  0  0  0  0  0
   33.4294   37.6623   67.6824 H   0  0  0  0  0  0  0  0  0  0  0  0
   33.8206   37.2369   65.2681 H   0  0  0  0  0  0  0  0  0  0  0  0
   30.1411   35.8990   63.1430 H   0  0  0  0  0  0  0  0  0  0  0  0
   31.5306   33.4534   61.7524 H   0  0  0  0  0  0  0  0  0  0  0  0
   33.0284   34.3807   61.4818 H   0  0  0  0  0  0  0  0  0  0  0  0
   32.6335   33.0269   59.5089 H   0  0  0  0  0  0  0  0  0  0  0  0
   30.9463   33.5774   59.4085 H   0  0  0  0  0  0  0  0  0  0  0  0
   32.7589   33.7548   57.1519 H   0  0  0  0  0  0  0  0  0  0  0  0
   33.4721   35.5819   55.6724 H   0  0  0  0  0  0  0  0  0  0  0  0
   33.5061   37.9003   56.5132 H   0  0  0  0  0  0  0  0  0  0  0  0
   32.8329   38.3713   58.8265 H   0  0  0  0  0  0  0  0  0  0  0  0
   31.4167   37.5898   60.6943 H   0  0  0  0  0  0  0  0  0  0  0  0
   32.9213   36.8614   61.2988 H   0  0  0  0  0  0  0  0  0  0  0  0
   29.9998   35.2813   65.1250 H   0  0  0  0  0  0  0  0  0  0  0  0
  1  2  3  0  0  0  0
  2  3  1  0  0  0  0
  3 22  2  0  0  0  0
  3  4  1  0  0  0  0
  4  5  2  0  0  0  0
  4 23  1  0  0  0  0
  5  6  1  0  0  0  0
  5 24  1  0  0  0  0
  6  7  1  0  0  0  0
  6 21  2  0  0  0  0
  7  8  2  0  0  0  0
  7  9  1  0  0  0  0
  9 10  1  0  0  0  0
  9 25  1  0  0  0  0
 10 11  1  6  0  0  0
 10 20  1  0  0  0  0
 10 12  1  0  0  0  0
 12 13  1  0  0  0  0
 12 26  1  0  0  0  0
 12 27  1  0  0  0  0
 13 14  1  0  0  0  0
 13 28  1  0  0  0  0
 13 29  1  0  0  0  0
 14 19  2  0  0  0  0
 14 15  1  0  0  0  0
 15 16  2  0  0  0  0
 15 30  1  0  0  0  0
 16 17  1  0  0  0  0
 16 31  1  0  0  0  0
 17 18  2  0  0  0  0
 17 32  1  0  0  0  0
 18 19  1  0  0  0  0
 18 33  1  0  0  0  0
 19 20  1  0  0  0  0
 20 34  1  0  0  0  0
 20 35  1  0  0  0  0
 21 22  1  0  0  0  0
 21 36  1  0  0  0  0
M  END
$$$$
