ZINC000000040256      none
 OpenBabel11202420153D

 24 25  0  0  0  0  0  0  0  0999 V2000
   34.6239   32.0865   55.2581 C   0  0  0  0  0  0  0  0  0  0  0  0
   35.0787   33.2491   55.6551 C   0  0  0  0  0  0  0  0  0  0  0  0
   34.7847   34.4883   54.8494 C   0  0  0  0  0  0  0  0  0  0  0  0
   33.4995   35.1089   55.3331 C   0  0  0  0  0  0  0  0  0  0  0  0
   32.4659   34.4769   55.2861 O   0  0  0  0  0  0  0  0  0  0  0  0
   33.4980   36.3684   55.8128 N   0  0  0  0  0  0  0  0  0  0  0  0
   33.8812   37.3921   55.0439 C   0  0  0  0  0  0  0  0  0  0  0  0
   34.2576   37.3376   53.8884 O   0  0  0  0  0  0  0  0  0  0  0  0
   33.7305   38.8445   56.0467 S   0  0  0  0  0  0  0  0  0  0  0  0
   33.1485   37.9768   57.4740 C   0  0  0  0  0  0  0  0  0  0  0  0
   32.7824   38.4024   58.7383 C   0  0  0  0  0  0  0  0  0  0  0  0
   32.3557   37.4837   59.6779 C   0  0  0  0  0  0  0  0  0  0  0  0
   32.2996   36.1423   59.3408 C   0  0  0  0  0  0  0  0  0  0  0  0
   32.6628   35.7155   58.0848 C   0  0  0  0  0  0  0  0  0  0  0  0
   33.0934   36.6308   57.1131 C   0  0  0  0  0  0  0  0  0  0  0  0
   34.8347   31.1984   55.8355 H   0  0  0  0  0  0  0  0  0  0  0  0
   34.0384   32.0161   54.3534 H   0  0  0  0  0  0  0  0  0  0  0  0
   35.6645   33.3196   56.5597 H   0  0  0  0  0  0  0  0  0  0  0  0
   34.6862   34.2223   53.7968 H   0  0  0  0  0  0  0  0  0  0  0  0
   35.6002   35.2015   54.9691 H   0  0  0  0  0  0  0  0  0  0  0  0
   32.8297   39.4515   58.9905 H   0  0  0  0  0  0  0  0  0  0  0  0
   32.0682   37.8095   60.6666 H   0  0  0  0  0  0  0  0  0  0  0  0
   31.9668   35.4218   60.0734 H   0  0  0  0  0  0  0  0  0  0  0  0
   32.6118   34.6642   57.8427 H   0  0  0  0  0  0  0  0  0  0  0  0
  1  2  2  0  0  0  0
  1 16  1  0  0  0  0
  1 17  1  0  0  0  0
  2  3  1  0  0  0  0
  2 18  1  0  0  0  0
  3  4  1  0  0  0  0
  3 19  1  0  0  0  0
  3 20  1  0  0  0  0
  4  5  2  0  0  0  0
  4  6  1  0  0  0  0
  6 15  1  0  0  0  0
  6  7  1  0  0  0  0
  7  8  2  0  0  0  0
  7  9  1  0  0  0  0
  9 10  1  0  0  0  0
 10 15  2  0  0  0  0
 10 11  1  0  0  0  0
 11 12  2  0  0  0  0
 11 21  1  0  0  0  0
 12 13  1  0  0  0  0
 12 22  1  0  0  0  0
 13 14  2  0  0  0  0
 13 23  1  0  0  0  0
 14 15  1  0  0  0  0
 14 24  1  0  0  0  0
M  END
$$$$
