ZINC000000040036      none
 OpenBabel11202420153D

 25 25  0  0  0  0  0  0  0  0999 V2000
   32.7140   35.3360   52.2991 C   0  0  0  0  0  0  0  0  0  0  0  0
   32.9796   34.1793   53.2644 C   0  0  0  0  0  0  0  0  0  0  0  0
   32.5149   34.5401   54.5918 O   0  0  0  0  0  0  0  0  0  0  0  0
   33.3990   35.1515   55.4044 C   0  0  0  0  0  0  0  0  0  0  0  0
   34.5276   35.3770   55.0144 O   0  0  0  0  0  0  0  0  0  0  0  0
   32.9974   35.5467   56.7658 C   0  0  0  0  0  0  0  0  0  0  0  0
   32.5635   34.5810   57.6789 C   0  0  0  0  0  0  0  0  0  0  0  0
   32.1888   34.9569   58.9503 C   0  0  0  0  0  0  0  0  0  0  0  0
   31.6028   33.6496   60.1845 Br  0  0  0  0  0  0  0  0  0  0  0  0
   32.2401   36.2911   59.3291 C   0  0  0  0  0  0  0  0  0  0  0  0
   31.7653   36.7516   60.9341 Cl  0  0  0  0  0  0  0  0  0  0  0  0
   32.6721   37.2544   58.4374 C   0  0  0  0  0  0  0  0  0  0  0  0
   32.7297   38.6997   58.8603 C   0  0  0  0  0  0  0  0  0  0  0  0
   33.0477   36.8936   57.1525 C   0  0  0  0  0  0  0  0  0  0  0  0
   33.4674   37.8390   56.2748 O   0  0  0  0  0  0  0  0  0  0  0  0
   31.6443   35.5430   52.2656 H   0  0  0  0  0  0  0  0  0  0  0  0
   33.2453   36.2241   52.6411 H   0  0  0  0  0  0  0  0  0  0  0  0
   33.0629   35.0653   51.3026 H   0  0  0  0  0  0  0  0  0  0  0  0
   34.0493   33.9723   53.2978 H   0  0  0  0  0  0  0  0  0  0  0  0
   32.4483   33.2911   52.9222 H   0  0  0  0  0  0  0  0  0  0  0  0
   32.5218   33.5417   57.3879 H   0  0  0  0  0  0  0  0  0  0  0  0
   31.7759   39.1804   58.6423 H   0  0  0  0  0  0  0  0  0  0  0  0
   32.9296   38.7575   59.9303 H   0  0  0  0  0  0  0  0  0  0  0  0
   33.5251   39.2067   58.3142 H   0  0  0  0  0  0  0  0  0  0  0  0
   33.7112   37.4894   55.4068 H   0  0  0  0  0  0  0  0  0  0  0  0
  1  2  1  0  0  0  0
  1 16  1  0  0  0  0
  1 17  1  0  0  0  0
  1 18  1  0  0  0  0
  2  3  1  0  0  0  0
  2 19  1  0  0  0  0
  2 20  1  0  0  0  0
  3  4  1  0  0  0  0
  4  5  2  0  0  0  0
  4  6  1  0  0  0  0
  6 14  2  0  0  0  0
  6  7  1  0  0  0  0
  7  8  2  0  0  0  0
  7 21  1  0  0  0  0
  8  9  1  0  0  0  0
  8 10  1  0  0  0  0
 10 11  1  0  0  0  0
 10 12  2  0  0  0  0
 12 13  1  0  0  0  0
 12 14  1  0  0  0  0
 13 22  1  0  0  0  0
 13 23  1  0  0  0  0
 13 24  1  0  0  0  0
 14 15  1  0  0  0  0
 15 25  1  0  0  0  0
M  END
$$$$
