ZINC000000029179      none
 OpenBabel11202420163D

 36 37  0  0  0  0  0  0  0  0999 V2000
   32.4993   36.1665   65.2928 C   0  0  0  0  0  0  0  0  0  0  0  0
   31.1997   36.6423   64.8124 N   0  0  0  0  0  0  0  0  0  0  0  0
   30.5889   37.8323   65.4098 C   0  0  0  0  0  0  0  0  0  0  0  0
   31.5166   39.0335   65.2165 C   0  0  0  0  0  0  0  0  0  0  0  0
   30.8788   40.2763   65.8405 C   0  0  0  0  0  0  0  0  0  0  0  0
   30.6562   40.0392   67.3356 C   0  0  0  0  0  0  0  0  0  0  0  0
   29.7283   38.8381   67.5290 C   0  0  0  0  0  0  0  0  0  0  0  0
   30.3663   37.5953   66.9049 C   0  0  0  0  0  0  0  0  0  0  0  0
   30.4211   35.8350   63.5941 S   0  0  0  0  0  0  0  0  0  0  0  0
   30.9226   34.5056   63.6091 O   0  0  0  0  0  0  0  0  0  0  0  0
   29.0407   36.1465   63.7243 O   0  0  0  0  0  0  0  0  0  0  0  0
   30.9510   36.5495   62.0731 C   0  0  0  0  0  0  0  0  0  0  0  0
   30.1032   36.5582   60.9812 C   0  0  0  0  0  0  0  0  0  0  0  0
   30.5172   37.1231   59.7893 C   0  0  0  0  0  0  0  0  0  0  0  0
   31.7827   37.6697   59.6863 C   0  0  0  0  0  0  0  0  0  0  0  0
   32.6323   37.6563   60.7767 C   0  0  0  0  0  0  0  0  0  0  0  0
   32.2164   37.0962   61.9701 C   0  0  0  0  0  0  0  0  0  0  0  0
   32.3484   35.4569   66.1063 H   0  0  0  0  0  0  0  0  0  0  0  0
   33.0310   35.6764   64.4771 H   0  0  0  0  0  0  0  0  0  0  0  0
   33.0856   37.0120   65.6523 H   0  0  0  0  0  0  0  0  0  0  0  0
   29.6321   38.0309   64.9271 H   0  0  0  0  0  0  0  0  0  0  0  0
   31.6753   39.2023   64.1514 H   0  0  0  0  0  0  0  0  0  0  0  0
   32.4735   38.8349   65.6993 H   0  0  0  0  0  0  0  0  0  0  0  0
   29.9219   40.4749   65.3577 H   0  0  0  0  0  0  0  0  0  0  0  0
   31.5397   41.1320   65.7028 H   0  0  0  0  0  0  0  0  0  0  0  0
   31.6130   39.8406   67.8184 H   0  0  0  0  0  0  0  0  0  0  0  0
   30.2016   40.9246   67.7800 H   0  0  0  0  0  0  0  0  0  0  0  0
   29.5698   38.6692   68.5940 H   0  0  0  0  0  0  0  0  0  0  0  0
   28.7715   39.0367   67.0460 H   0  0  0  0  0  0  0  0  0  0  0  0
   31.3231   37.3968   67.3878 H   0  0  0  0  0  0  0  0  0  0  0  0
   29.7053   36.7396   67.0426 H   0  0  0  0  0  0  0  0  0  0  0  0
   29.1162   36.1271   61.0604 H   0  0  0  0  0  0  0  0  0  0  0  0
   29.8536   37.1332   58.9373 H   0  0  0  0  0  0  0  0  0  0  0  0
   32.1077   38.1071   58.7538 H   0  0  0  0  0  0  0  0  0  0  0  0
   33.6211   38.0832   60.6961 H   0  0  0  0  0  0  0  0  0  0  0  0
   32.8804   37.0853   62.8219 H   0  0  0  0  0  0  0  0  0  0  0  0
  1  2  1  0  0  0  0
  1 18  1  0  0  0  0
  1 19  1  0  0  0  0
  1 20  1  0  0  0  0
  2  3  1  0  0  0  0
  2  9  1  0  0  0  0
  3  8  1  0  0  0  0
  3  4  1  0  0  0  0
  3 21  1  0  0  0  0
  4  5  1  0  0  0  0
  4 22  1  0  0  0  0
  4 23  1  0  0  0  0
  5  6  1  0  0  0  0
  5 24  1  0  0  0  0
  5 25  1  0  0  0  0
  6  7  1  0  0  0  0
  6 26  1  0  0  0  0
  6 27  1  0  0  0  0
  7  8  1  0  0  0  0
  7 28  1  0  0  0  0
  7 29  1  0  0  0  0
  8 30  1  0  0  0  0
  8 31  1  0  0  0  0
  9 10  2  0  0  0  0
  9 11  2  0  0  0  0
  9 12  1  0  0  0  0
 12 17  2  0  0  0  0
 12 13  1  0  0  0  0
 13 14  2  0  0  0  0
 13 32  1  0  0  0  0
 14 15  1  0  0  0  0
 14 33  1  0  0  0  0
 15 16  2  0  0  0  0
 15 34  1  0  0  0  0
 16 17  1  0  0  0  0
 16 35  1  0  0  0  0
 17 36  1  0  0  0  0
M  END
$$$$
