ZINC000000053544      none
 OpenBabel11202420153D

 28 30  0  0  0  0  0  0  0  0999 V2000
   33.6022   36.0587   55.9006 C   0  0  0  0  0  0  0  0  0  0  0  0
   33.1051   36.2971   57.2579 N   0  0  0  0  0  0  0  0  0  0  0  0
   32.6740   35.2598   58.0036 C   0  0  0  0  0  0  0  0  0  0  0  0
   32.6905   34.1286   57.5538 O   0  0  0  0  0  0  0  0  0  0  0  0
   32.1835   35.5116   59.3653 C   0  0  0  0  0  0  0  0  0  0  0  0
   31.7175   34.4345   60.1859 C   0  0  0  0  0  0  0  0  0  0  0  0
   31.3479   33.5799   60.8369 N   0  0  0  0  0  0  0  0  0  0  0  0
   32.1811   36.8197   59.8403 C   0  0  0  0  0  0  0  0  0  0  0  0
   31.6980   37.1157   61.2004 C   0  0  0  0  0  0  0  0  0  0  0  0
   30.3499   37.4170   61.4171 C   0  0  0  0  0  0  0  0  0  0  0  0
   29.9041   37.6872   62.6937 C   0  0  0  0  0  0  0  0  0  0  0  0
   30.7897   37.6725   63.7573 C   0  0  0  0  0  0  0  0  0  0  0  0
   32.1265   37.3803   63.5500 C   0  0  0  0  0  0  0  0  0  0  0  0
   32.5864   37.1024   62.2801 C   0  0  0  0  0  0  0  0  0  0  0  0
   32.6344   37.8342   59.0287 N   0  0  0  0  0  0  0  0  0  0  0  0
   32.7527   39.1851   59.2065 C   0  0  0  0  0  0  0  0  0  0  0  0
   33.2459   39.6757   58.1037 N   0  0  0  0  0  0  0  0  0  0  0  0
   33.4452   38.7358   57.2499 N   0  0  0  0  0  0  0  0  0  0  0  0
   33.0872   37.5809   57.7642 C   0  0  0  0  0  0  0  0  0  0  0  0
   33.5464   34.9938   55.6750 H   0  0  0  0  0  0  0  0  0  0  0  0
   32.9926   36.6137   55.1875 H   0  0  0  0  0  0  0  0  0  0  0  0
   34.6378   36.3913   55.8294 H   0  0  0  0  0  0  0  0  0  0  0  0
   29.6587   37.4339   60.5874 H   0  0  0  0  0  0  0  0  0  0  0  0
   28.8623   37.9153   62.8634 H   0  0  0  0  0  0  0  0  0  0  0  0
   30.4355   37.8897   64.7542 H   0  0  0  0  0  0  0  0  0  0  0  0
   32.8115   37.3704   64.3850 H   0  0  0  0  0  0  0  0  0  0  0  0
   33.6298   36.8745   62.1199 H   0  0  0  0  0  0  0  0  0  0  0  0
   32.4879   39.7409   60.0938 H   0  0  0  0  0  0  0  0  0  0  0  0
  1  2  1  0  0  0  0
  1 20  1  0  0  0  0
  1 21  1  0  0  0  0
  1 22  1  0  0  0  0
  2 19  1  0  0  0  0
  2  3  1  0  0  0  0
  3  4  2  0  0  0  0
  3  5  1  0  0  0  0
  5  6  1  0  0  0  0
  5  8  2  0  0  0  0
  6  7  3  0  0  0  0
  8  9  1  0  0  0  0
  8 15  1  0  0  0  0
  9 14  2  0  0  0  0
  9 10  1  0  0  0  0
 10 11  2  0  0  0  0
 10 23  1  0  0  0  0
 11 12  1  0  0  0  0
 11 24  1  0  0  0  0
 12 13  2  0  0  0  0
 12 25  1  0  0  0  0
 13 14  1  0  0  0  0
 13 26  1  0  0  0  0
 14 27  1  0  0  0  0
 15 19  1  0  0  0  0
 15 16  1  0  0  0  0
 16 17  2  0  0  0  0
 16 28  1  0  0  0  0
 17 18  1  0  0  0  0
 18 19  2  0  0  0  0
M  END
$$$$
