ZINC000000038668      none
 OpenBabel11202420153D

 34 35  0  0  0  0  0  0  0  0999 V2000
   30.9025   34.3611   62.6681 C   0  0  0  0  0  0  0  0  0  0  0  0
   31.1719   35.7475   62.1426 C   0  0  0  0  0  0  0  0  0  0  0  0
   30.7983   36.8520   62.8867 C   0  0  0  0  0  0  0  0  0  0  0  0
   31.0421   38.1289   62.4119 C   0  0  0  0  0  0  0  0  0  0  0  0
   31.6655   38.3076   61.1941 C   0  0  0  0  0  0  0  0  0  0  0  0
   32.0401   37.1973   60.4358 C   0  0  0  0  0  0  0  0  0  0  0  0
   32.7033   37.3814   59.1276 C   0  0  0  0  0  0  0  0  0  0  0  0
   33.3556   38.3845   58.9129 O   0  0  0  0  0  0  0  0  0  0  0  0
   32.5893   36.4348   58.1751 N   0  0  0  0  0  0  0  0  0  0  0  0
   33.2214   36.6064   56.9395 C   0  0  0  0  0  0  0  0  0  0  0  0
   33.4136   37.8834   56.4274 C   0  0  0  0  0  0  0  0  0  0  0  0
   34.0424   38.0496   55.2094 C   0  0  0  0  0  0  0  0  0  0  0  0
   34.2517   39.4101   54.6650 N   0  0  0  0  0  0  0  0  0  0  0  0
   33.8694   40.3821   55.2914 O   0  0  0  0  0  0  0  0  0  0  0  0
   34.8062   39.5574   53.5907 O   0  0  0  0  0  0  0  0  0  0  0  0
   34.4718   36.9461   54.4947 C   0  0  0  0  0  0  0  0  0  0  0  0
   34.2775   35.6735   54.9992 C   0  0  0  0  0  0  0  0  0  0  0  0
   33.6534   35.5005   56.2193 C   0  0  0  0  0  0  0  0  0  0  0  0
   33.4410   34.1131   56.7679 C   0  0  0  0  0  0  0  0  0  0  0  0
   31.7908   35.9121   60.9209 C   0  0  0  0  0  0  0  0  0  0  0  0
   31.7543   34.0246   63.2589 H   0  0  0  0  0  0  0  0  0  0  0  0
   30.0099   34.3768   63.2935 H   0  0  0  0  0  0  0  0  0  0  0  0
   30.7481   33.6792   61.8318 H   0  0  0  0  0  0  0  0  0  0  0  0
   30.3140   36.7183   63.8429 H   0  0  0  0  0  0  0  0  0  0  0  0
   30.7480   38.9872   62.9978 H   0  0  0  0  0  0  0  0  0  0  0  0
   31.8592   39.3045   60.8263 H   0  0  0  0  0  0  0  0  0  0  0  0
   32.0688   35.6345   58.3466 H   0  0  0  0  0  0  0  0  0  0  0  0
   33.0745   38.7452   56.9829 H   0  0  0  0  0  0  0  0  0  0  0  0
   34.9597   37.0785   53.5403 H   0  0  0  0  0  0  0  0  0  0  0  0
   34.6136   34.8138   54.4386 H   0  0  0  0  0  0  0  0  0  0  0  0
   32.4787   33.7309   56.4271 H   0  0  0  0  0  0  0  0  0  0  0  0
   34.2376   33.4574   56.4162 H   0  0  0  0  0  0  0  0  0  0  0  0
   33.4530   34.1473   57.8573 H   0  0  0  0  0  0  0  0  0  0  0  0
   32.0815   35.0489   60.3409 H   0  0  0  0  0  0  0  0  0  0  0  0
  1  2  1  0  0  0  0
  1 21  1  0  0  0  0
  1 22  1  0  0  0  0
  1 23  1  0  0  0  0
  2 20  2  0  0  0  0
  2  3  1  0  0  0  0
  3  4  2  0  0  0  0
  3 24  1  0  0  0  0
  4  5  1  0  0  0  0
  4 25  1  0  0  0  0
  5  6  2  0  0  0  0
  5 26  1  0  0  0  0
  6  7  1  0  0  0  0
  6 20  1  0  0  0  0
  7  8  2  0  0  0  0
  7  9  1  0  0  0  0
  9 10  1  0  0  0  0
  9 27  1  0  0  0  0
 10 18  2  0  0  0  0
 10 11  1  0  0  0  0
 11 12  2  0  0  0  0
 11 28  1  0  0  0  0
 12 13  1  0  0  0  0
 12 16  1  0  0  0  0
 13 14  2  0  0  0  0
 13 15  2  0  0  0  0
 16 17  2  0  0  0  0
 16 29  1  0  0  0  0
 17 18  1  0  0  0  0
 17 30  1  0  0  0  0
 18 19  1  0  0  0  0
 19 31  1  0  0  0  0
 19 32  1  0  0  0  0
 19 33  1  0  0  0  0
 20 34  1  0  0  0  0
M  END
$$$$
