ZINC000000032522      none
 OpenBabel11202420153D

 25 28  0  0  1  0  0  0  0  0999 V2000
   31.5081   35.9122   67.0935 S   0  0  0  0  0  0  0  0  0  0  0  0
   31.3897   36.1498   65.4022 C   0  0  0  0  0  0  0  0  0  0  0  0
   32.6078   36.9331   64.4667 S   0  0  0  0  0  0  0  0  0  0  0  0
   31.8074   36.7914   62.9035 C   0  0  0  0  0  0  0  0  0  0  0  0
   30.6202   36.2194   62.9101 C   0  0  0  0  0  0  0  0  0  0  0  0
   30.0396   35.6307   64.4634 S   0  0  0  0  0  0  0  0  0  0  0  0
   29.5740   36.0026   61.4823 S   0  0  0  0  0  0  0  0  0  0  0  0
   30.5070   36.4701   60.0646 C   0  0  2  0  0  0  0  0  0  0  0  0
   29.7775   36.7224   59.2951 H   0  0  0  0  0  0  0  0  0  0  0  0
   31.4139   35.4533   59.3973 C   0  0  0  0  0  0  0  0  0  0  0  0
   32.2236   36.3308   58.4662 C   0  0  0  0  0  0  0  0  0  0  0  0
   32.9389   35.9811   57.3352 C   0  0  0  0  0  0  0  0  0  0  0  0
   33.5285   37.0153   56.6186 C   0  0  0  0  0  0  0  0  0  0  0  0
   33.4095   38.3324   57.0115 C   0  0  0  0  0  0  0  0  0  0  0  0
   32.7049   38.6885   58.1566 C   0  0  0  0  0  0  0  0  0  0  0  0
   32.1371   37.6616   58.8806 C   0  0  0  0  0  0  0  0  0  0  0  0
   31.3861   37.7182   60.2108 C   0  0  2  0  0  0  0  0  0  0  0  0
   30.8303   38.6434   60.3627 H   0  0  0  0  0  0  0  0  0  0  0  0
   32.6520   37.4275   61.4718 S   0  0  0  0  0  0  0  0  0  0  0  0
   30.8416   34.7134   58.8378 H   0  0  0  0  0  0  0  0  0  0  0  0
   32.0544   34.9724   60.1366 H   0  0  0  0  0  0  0  0  0  0  0  0
   33.0351   34.9516   57.0236 H   0  0  0  0  0  0  0  0  0  0  0  0
   34.0959   36.7816   55.7298 H   0  0  0  0  0  0  0  0  0  0  0  0
   33.8741   39.1046   56.4163 H   0  0  0  0  0  0  0  0  0  0  0  0
   32.6111   39.7190   58.4661 H   0  0  0  0  0  0  0  0  0  0  0  0
  1  2  2  0  0  0  0
  2  6  1  0  0  0  0
  2  3  1  0  0  0  0
  3  4  1  0  0  0  0
  4 19  1  0  0  0  0
  4  5  2  0  0  0  0
  5  6  1  0  0  0  0
  5  7  1  0  0  0  0
  7  8  1  0  0  0  0
  8  9  1  6  0  0  0
  8 17  1  0  0  0  0
  8 10  1  0  0  0  0
 10 11  1  0  0  0  0
 10 20  1  0  0  0  0
 10 21  1  0  0  0  0
 11 16  2  0  0  0  0
 11 12  1  0  0  0  0
 12 13  2  0  0  0  0
 12 22  1  0  0  0  0
 13 14  1  0  0  0  0
 13 23  1  0  0  0  0
 14 15  2  0  0  0  0
 14 24  1  0  0  0  0
 15 16  1  0  0  0  0
 15 25  1  0  0  0  0
 16 17  1  0  0  0  0
 17 18  1  1  0  0  0
 17 19  1  0  0  0  0
M  END
$$$$
