ZINC000000003941      none
 OpenBabel11202420153D

 42 44  0  0  0  0  0  0  0  0999 V2000
   32.4617   35.8624   52.4566 C   0  0  0  0  0  0  0  0  0  0  0  0
   32.6753   34.7924   53.4962 C   0  0  0  0  0  0  0  0  0  0  0  0
   33.4159   33.8604   53.2637 O   0  0  0  0  0  0  0  0  0  0  0  0
   32.0435   34.8709   54.6840 N   0  0  0  0  0  0  0  0  0  0  0  0
   32.2512   33.8308   55.6945 C   0  0  0  0  0  0  0  0  0  0  0  0
   33.4328   34.2155   56.5870 C   0  0  0  0  0  0  0  0  0  0  0  0
   33.1410   35.5273   57.2689 C   0  0  0  0  0  0  0  0  0  0  0  0
   32.5332   35.6932   58.4543 C   0  0  0  0  0  0  0  0  0  0  0  0
   32.0249   34.5768   59.3296 C   0  0  0  0  0  0  0  0  0  0  0  0
   31.4057   35.1570   60.5750 C   0  0  0  0  0  0  0  0  0  0  0  0
   32.1832   35.3718   61.6976 C   0  0  0  0  0  0  0  0  0  0  0  0
   31.6154   35.9045   62.8400 C   0  0  0  0  0  0  0  0  0  0  0  0
   30.2704   36.2228   62.8593 C   0  0  0  0  0  0  0  0  0  0  0  0
   29.4918   36.0031   61.7383 C   0  0  0  0  0  0  0  0  0  0  0  0
   30.0604   35.4741   60.5948 C   0  0  0  0  0  0  0  0  0  0  0  0
   32.4489   37.0258   58.7528 N   0  0  0  0  0  0  0  0  0  0  0  0
   32.0533   37.3923   59.5591 H   0  0  0  0  0  0  0  0  0  0  0  0
   33.0094   37.7691   57.7383 C   0  0  0  0  0  0  0  0  0  0  0  0
   33.1848   39.1343   57.5354 C   0  0  0  0  0  0  0  0  0  0  0  0
   33.7995   39.5819   56.3869 C   0  0  0  0  0  0  0  0  0  0  0  0
   34.2463   38.6839   55.4269 C   0  0  0  0  0  0  0  0  0  0  0  0
   34.0844   37.3391   55.6057 C   0  0  0  0  0  0  0  0  0  0  0  0
   33.4643   36.8635   56.7629 C   0  0  0  0  0  0  0  0  0  0  0  0
   31.7698   36.6110   52.8427 H   0  0  0  0  0  0  0  0  0  0  0  0
   33.4150   36.3359   52.2214 H   0  0  0  0  0  0  0  0  0  0  0  0
   32.0460   35.4144   51.5542 H   0  0  0  0  0  0  0  0  0  0  0  0
   31.4512   35.6164   54.8698 H   0  0  0  0  0  0  0  0  0  0  0  0
   32.4622   32.8820   55.2012 H   0  0  0  0  0  0  0  0  0  0  0  0
   31.3528   33.7317   56.3037 H   0  0  0  0  0  0  0  0  0  0  0  0
   34.3311   34.3148   55.9776 H   0  0  0  0  0  0  0  0  0  0  0  0
   33.5875   33.4417   57.3388 H   0  0  0  0  0  0  0  0  0  0  0  0
   32.8538   33.9252   59.6056 H   0  0  0  0  0  0  0  0  0  0  0  0
   31.2758   34.0010   58.7858 H   0  0  0  0  0  0  0  0  0  0  0  0
   33.2342   35.1238   61.6822 H   0  0  0  0  0  0  0  0  0  0  0  0
   32.2227   36.0723   63.7171 H   0  0  0  0  0  0  0  0  0  0  0  0
   29.8268   36.6391   63.7518 H   0  0  0  0  0  0  0  0  0  0  0  0
   28.4400   36.2477   61.7551 H   0  0  0  0  0  0  0  0  0  0  0  0
   29.4530   35.3060   59.7178 H   0  0  0  0  0  0  0  0  0  0  0  0
   32.8400   39.8408   58.2760 H   0  0  0  0  0  0  0  0  0  0  0  0
   33.9353   40.6420   56.2315 H   0  0  0  0  0  0  0  0  0  0  0  0
   34.7260   39.0514   54.5317 H   0  0  0  0  0  0  0  0  0  0  0  0
   34.4345   36.6465   54.8547 H   0  0  0  0  0  0  0  0  0  0  0  0
  1  2  1  0  0  0  0
  1 24  1  0  0  0  0
  1 25  1  0  0  0  0
  1 26  1  0  0  0  0
  2  3  2  0  0  0  0
  2  4  1  0  0  0  0
  4  5  1  0  0  0  0
  4 27  1  0  0  0  0
  5  6  1  0  0  0  0
  5 28  1  0  0  0  0
  5 29  1  0  0  0  0
  6  7  1  0  0  0  0
  6 30  1  0  0  0  0
  6 31  1  0  0  0  0
  7 23  1  0  0  0  0
  7  8  2  0  0  0  0
  8  9  1  0  0  0  0
  8 16  1  0  0  0  0
  9 10  1  0  0  0  0
  9 32  1  0  0  0  0
  9 33  1  0  0  0  0
 10 15  2  0  0  0  0
 10 11  1  0  0  0  0
 11 12  2  0  0  0  0
 11 34  1  0  0  0  0
 12 13  1  0  0  0  0
 12 35  1  0  0  0  0
 13 14  2  0  0  0  0
 13 36  1  0  0  0  0
 14 15  1  0  0  0  0
 14 37  1  0  0  0  0
 15 38  1  0  0  0  0
 16 17  1  0  0  0  0
 16 18  1  0  0  0  0
 18 23  2  0  0  0  0
 18 19  1  0  0  0  0
 19 20  2  0  0  0  0
 19 39  1  0  0  0  0
 20 21  1  0  0  0  0
 20 40  1  0  0  0  0
 21 22  2  0  0  0  0
 21 41  1  0  0  0  0
 22 23  1  0  0  0  0
 22 42  1  0  0  0  0
M  END
$$$$
