ZINC000000001421      none
 OpenBabel11202420153D

 28 28  0  0  0  0  0  0  0  0999 V2000
   34.7600   34.3498   54.5217 C   0  0  0  0  0  0  0  0  0  0  0  0
   34.1540   34.7792   55.8328 C   0  0  0  0  0  0  0  0  0  0  0  0
   33.6710   36.0064   55.9696 C   0  0  0  0  0  0  0  0  0  0  0  0
   33.7281   36.9718   54.8139 C   0  0  0  0  0  0  0  0  0  0  0  0
   33.0821   36.4294   57.2573 C   0  0  0  0  0  0  0  0  0  0  0  0
   33.1507   37.7663   57.6525 C   0  0  0  0  0  0  0  0  0  0  0  0
   32.5954   38.1579   58.8520 C   0  0  0  0  0  0  0  0  0  0  0  0
   31.9778   37.2224   59.6716 C   0  0  0  0  0  0  0  0  0  0  0  0
   31.4362   37.6115   60.8556 O   0  0  0  0  0  0  0  0  0  0  0  0
   31.9271   37.0404   61.9673 C   0  0  0  0  0  0  0  0  0  0  0  0
   31.0186   36.2484   62.8717 C   0  0  0  0  0  0  0  0  0  0  0  0
   33.0974   37.1617   62.2424 O   0  0  0  0  0  0  0  0  0  0  0  0
   31.9126   35.8905   59.2845 C   0  0  0  0  0  0  0  0  0  0  0  0
   32.4609   35.4920   58.0841 C   0  0  0  0  0  0  0  0  0  0  0  0
   35.6068   34.9940   54.2845 H   0  0  0  0  0  0  0  0  0  0  0  0
   35.1000   33.3170   54.5994 H   0  0  0  0  0  0  0  0  0  0  0  0
   34.0121   34.4277   53.7327 H   0  0  0  0  0  0  0  0  0  0  0  0
   34.1130   34.0873   56.6612 H   0  0  0  0  0  0  0  0  0  0  0  0
   32.8212   36.8777   54.2167 H   0  0  0  0  0  0  0  0  0  0  0  0
   33.8084   37.9900   55.1946 H   0  0  0  0  0  0  0  0  0  0  0  0
   34.5961   36.7460   54.1943 H   0  0  0  0  0  0  0  0  0  0  0  0
   33.6346   38.4938   57.0176 H   0  0  0  0  0  0  0  0  0  0  0  0
   32.6448   39.1929   59.1568 H   0  0  0  0  0  0  0  0  0  0  0  0
   30.5886   35.4153   62.3156 H   0  0  0  0  0  0  0  0  0  0  0  0
   31.5910   35.8646   63.7162 H   0  0  0  0  0  0  0  0  0  0  0  0
   30.2188   36.8923   63.2375 H   0  0  0  0  0  0  0  0  0  0  0  0
   31.4321   35.1658   59.9249 H   0  0  0  0  0  0  0  0  0  0  0  0
   32.4101   34.4558   57.7839 H   0  0  0  0  0  0  0  0  0  0  0  0
  1  2  1  0  0  0  0
  1 15  1  0  0  0  0
  1 16  1  0  0  0  0
  1 17  1  0  0  0  0
  2  3  2  0  0  0  0
  2 18  1  0  0  0  0
  3  4  1  0  0  0  0
  3  5  1  0  0  0  0
  4 19  1  0  0  0  0
  4 20  1  0  0  0  0
  4 21  1  0  0  0  0
  5 14  2  0  0  0  0
  5  6  1  0  0  0  0
  6  7  2  0  0  0  0
  6 22  1  0  0  0  0
  7  8  1  0  0  0  0
  7 23  1  0  0  0  0
  8  9  1  0  0  0  0
  8 13  2  0  0  0  0
  9 10  1  0  0  0  0
 10 11  1  0  0  0  0
 10 12  2  0  0  0  0
 11 24  1  0  0  0  0
 11 25  1  0  0  0  0
 11 26  1  0  0  0  0
 13 14  1  0  0  0  0
 13 27  1  0  0  0  0
 14 28  1  0  0  0  0
M  END
$$$$
