ZINC000000042240      none
 OpenBabel11202420153D

 31 33  0  0  0  0  0  0  0  0999 V2000
   31.5196   39.9678   65.9104 C   0  0  0  0  0  0  0  0  0  0  0  0
   32.4799   38.9267   65.7201 O   0  0  0  0  0  0  0  0  0  0  0  0
   32.1515   37.9363   64.8505 C   0  0  0  0  0  0  0  0  0  0  0  0
   33.0414   36.8943   64.6200 C   0  0  0  0  0  0  0  0  0  0  0  0
   32.7136   35.8877   63.7388 C   0  0  0  0  0  0  0  0  0  0  0  0
   31.4819   35.9158   63.0752 C   0  0  0  0  0  0  0  0  0  0  0  0
   31.1268   34.8442   62.1329 C   0  0  0  0  0  0  0  0  0  0  0  0
   31.4490   34.9600   60.8244 C   0  0  0  0  0  0  0  0  0  0  0  0
   31.3757   33.9721   59.8997 O   0  0  0  0  0  0  0  0  0  0  0  0
   31.7682   34.4153   58.6929 C   0  0  0  0  0  0  0  0  0  0  0  0
   31.8082   33.7536   57.6734 O   0  0  0  0  0  0  0  0  0  0  0  0
   32.1412   35.8307   58.8098 C   0  0  0  0  0  0  0  0  0  0  0  0
   32.6095   36.7897   57.9155 C   0  0  0  0  0  0  0  0  0  0  0  0
   32.8719   38.0690   58.3601 C   0  0  0  0  0  0  0  0  0  0  0  0
   32.6729   38.4094   59.6901 C   0  0  0  0  0  0  0  0  0  0  0  0
   32.2091   37.4742   60.5926 C   0  0  0  0  0  0  0  0  0  0  0  0
   31.9386   36.1778   60.1646 C   0  0  0  0  0  0  0  0  0  0  0  0
   30.5917   36.9704   63.3069 C   0  0  0  0  0  0  0  0  0  0  0  0
   30.9272   37.9691   64.1942 C   0  0  0  0  0  0  0  0  0  0  0  0
   31.3290   40.4646   64.9591 H   0  0  0  0  0  0  0  0  0  0  0  0
   30.5911   39.5408   66.2897 H   0  0  0  0  0  0  0  0  0  0  0  0
   31.9061   40.6920   66.6276 H   0  0  0  0  0  0  0  0  0  0  0  0
   33.9915   36.8735   65.1330 H   0  0  0  0  0  0  0  0  0  0  0  0
   33.4058   35.0782   63.5606 H   0  0  0  0  0  0  0  0  0  0  0  0
   30.6088   33.9647   62.4858 H   0  0  0  0  0  0  0  0  0  0  0  0
   32.7674   36.5328   56.8785 H   0  0  0  0  0  0  0  0  0  0  0  0
   33.2354   38.8126   57.6662 H   0  0  0  0  0  0  0  0  0  0  0  0
   32.8784   39.4166   60.0213 H   0  0  0  0  0  0  0  0  0  0  0  0
   32.0564   37.7471   61.6262 H   0  0  0  0  0  0  0  0  0  0  0  0
   29.6415   36.9989   62.7944 H   0  0  0  0  0  0  0  0  0  0  0  0
   30.2390   38.7811   64.3772 H   0  0  0  0  0  0  0  0  0  0  0  0
  1  2  1  0  0  0  0
  1 20  1  0  0  0  0
  1 21  1  0  0  0  0
  1 22  1  0  0  0  0
  2  3  1  0  0  0  0
  3 19  2  0  0  0  0
  3  4  1  0  0  0  0
  4  5  2  0  0  0  0
  4 23  1  0  0  0  0
  5  6  1  0  0  0  0
  5 24  1  0  0  0  0
  6  7  1  0  0  0  0
  6 18  2  0  0  0  0
  7  8  2  0  0  0  0
  7 25  1  0  0  0  0
  8 17  1  0  0  0  0
  8  9  1  0  0  0  0
  9 10  1  0  0  0  0
 10 11  2  0  0  0  0
 10 12  1  0  0  0  0
 12 17  2  0  0  0  0
 12 13  1  0  0  0  0
 13 14  2  0  0  0  0
 13 26  1  0  0  0  0
 14 15  1  0  0  0  0
 14 27  1  0  0  0  0
 15 16  2  0  0  0  0
 15 28  1  0  0  0  0
 16 17  1  0  0  0  0
 16 29  1  0  0  0  0
 18 19  1  0  0  0  0
 18 30  1  0  0  0  0
 19 31  1  0  0  0  0
M  END
$$$$
