ZINC000000046828      none
 OpenBabel11202420153D

 24 25  0  0  0  0  0  0  0  0999 V2000
   32.1906   37.7884   61.8161 O   0  0  0  0  0  0  0  0  0  0  0  0
   31.5767   36.8321   62.2399 C   0  0  0  0  0  0  0  0  0  0  0  0
   31.0310   36.8493   63.6446 C   0  0  0  0  0  0  0  0  0  0  0  0
   30.0929   37.9650   63.7903 N   0  0  0  0  0  0  0  0  0  0  0  0
   29.1222   38.3117   62.9248 C   0  0  0  0  0  0  0  0  0  0  0  0
   28.5200   39.3585   63.4344 N   0  0  0  0  0  0  0  0  0  0  0  0
   29.0910   39.6400   64.5546 N   0  0  0  0  0  0  0  0  0  0  0  0
   30.0382   38.7965   64.7754 N   0  0  0  0  0  0  0  0  0  0  0  0
   31.3824   35.7540   61.4547 N   0  0  0  0  0  0  0  0  0  0  0  0
   31.8894   35.7380   60.1500 C   0  0  0  0  0  0  0  0  0  0  0  0
   32.0194   36.9238   59.4393 C   0  0  0  0  0  0  0  0  0  0  0  0
   32.5198   36.9049   58.1522 C   0  0  0  0  0  0  0  0  0  0  0  0
   32.8920   35.7062   57.5705 C   0  0  0  0  0  0  0  0  0  0  0  0
   32.7641   34.5237   58.2746 C   0  0  0  0  0  0  0  0  0  0  0  0
   32.2635   34.5354   59.5630 C   0  0  0  0  0  0  0  0  0  0  0  0
   32.1026   33.0498   60.4466 Cl  0  0  0  0  0  0  0  0  0  0  0  0
   30.5136   35.9110   63.8448 H   0  0  0  0  0  0  0  0  0  0  0  0
   31.8517   36.9698   64.3517 H   0  0  0  0  0  0  0  0  0  0  0  0
   28.8853   37.8222   61.9917 H   0  0  0  0  0  0  0  0  0  0  0  0
   30.8915   34.9892   61.7937 H   0  0  0  0  0  0  0  0  0  0  0  0
   31.7290   37.8602   59.8926 H   0  0  0  0  0  0  0  0  0  0  0  0
   32.6211   37.8271   57.5993 H   0  0  0  0  0  0  0  0  0  0  0  0
   33.2836   35.6951   56.5641 H   0  0  0  0  0  0  0  0  0  0  0  0
   33.0514   33.5892   57.8159 H   0  0  0  0  0  0  0  0  0  0  0  0
  1  2  2  0  0  0  0
  2  3  1  0  0  0  0
  2  9  1  0  0  0  0
  3  4  1  0  0  0  0
  3 17  1  0  0  0  0
  3 18  1  0  0  0  0
  4  8  1  0  0  0  0
  4  5  1  0  0  0  0
  5  6  2  0  0  0  0
  5 19  1  0  0  0  0
  6  7  1  0  0  0  0
  7  8  2  0  0  0  0
  9 10  1  0  0  0  0
  9 20  1  0  0  0  0
 10 15  2  0  0  0  0
 10 11  1  0  0  0  0
 11 12  2  0  0  0  0
 11 21  1  0  0  0  0
 12 13  1  0  0  0  0
 12 22  1  0  0  0  0
 13 14  2  0  0  0  0
 13 23  1  0  0  0  0
 14 15  1  0  0  0  0
 14 24  1  0  0  0  0
 15 16  1  0  0  0  0
M  END
$$$$
