ZINC000000041635      none
 OpenBabel11202420153D

 29 31  0  0  1  0  0  0  0  0999 V2000
   29.3127   35.7315   62.3412 N   0  0  0  0  0  0  0  0  0  0  0  0
   30.0576   36.5795   62.2119 C   0  0  0  0  0  0  0  0  0  0  0  0
   31.0226   37.6782   62.0442 C   0  0  1  0  0  0  0  0  0  0  0  0
   32.0817   37.5840   63.1123 C   0  0  0  0  0  0  0  0  0  0  0  0
   33.0854   36.9416   62.9128 O   0  0  0  0  0  0  0  0  0  0  0  0
   31.8927   38.2761   64.4016 C   0  0  0  0  0  0  0  0  0  0  0  0
   32.4480   37.7653   65.5814 C   0  0  0  0  0  0  0  0  0  0  0  0
   32.2498   38.4494   66.7650 C   0  0  0  0  0  0  0  0  0  0  0  0
   31.5417   39.5603   66.7948 N   0  0  0  0  0  0  0  0  0  0  0  0
   30.9970   40.0735   65.7093 C   0  0  0  0  0  0  0  0  0  0  0  0
   31.1478   39.4595   64.4813 C   0  0  0  0  0  0  0  0  0  0  0  0
   31.6683   37.5768   60.6863 C   0  0  0  0  0  0  0  0  0  0  0  0
   32.0934   38.5792   60.0148 N   0  0  0  0  0  0  0  0  0  0  0  0
   32.6507   38.3402   58.8123 C   0  0  0  0  0  0  0  0  0  0  0  0
   33.1941   39.2433   57.8764 C   0  0  0  0  0  0  0  0  0  0  0  0
   33.7159   38.7898   56.7030 C   0  0  0  0  0  0  0  0  0  0  0  0
   33.7235   37.4340   56.4061 C   0  0  0  0  0  0  0  0  0  0  0  0
   33.1997   36.5290   57.3014 C   0  0  0  0  0  0  0  0  0  0  0  0
   32.6616   36.9748   58.5069 C   0  0  0  0  0  0  0  0  0  0  0  0
   31.9246   36.1103   59.8522 S   0  0  0  0  0  0  0  0  0  0  0  0
   30.5044   38.6333   62.1297 H   0  0  0  0  0  0  0  0  0  0  0  0
   33.0256   36.8529   65.5655 H   0  0  0  0  0  0  0  0  0  0  0  0
   32.6773   38.0659   67.6795 H   0  0  0  0  0  0  0  0  0  0  0  0
   30.4244   40.9865   65.7813 H   0  0  0  0  0  0  0  0  0  0  0  0
   30.6982   39.8853   63.5964 H   0  0  0  0  0  0  0  0  0  0  0  0
   33.1965   40.3017   58.0910 H   0  0  0  0  0  0  0  0  0  0  0  0
   34.1245   39.4938   55.9932 H   0  0  0  0  0  0  0  0  0  0  0  0
   34.1406   37.0888   55.4716 H   0  0  0  0  0  0  0  0  0  0  0  0
   33.2061   35.4742   57.0697 H   0  0  0  0  0  0  0  0  0  0  0  0
  1  2  3  0  0  0  0
  2  3  1  0  0  0  0
  3  4  1  0  0  0  0
  3 12  1  0  0  0  0
  3 21  1  1  0  0  0
  4  5  2  0  0  0  0
  4  6  1  0  0  0  0
  6 11  2  0  0  0  0
  6  7  1  0  0  0  0
  7  8  2  0  0  0  0
  7 22  1  0  0  0  0
  8  9  1  0  0  0  0
  8 23  1  0  0  0  0
  9 10  2  0  0  0  0
 10 11  1  0  0  0  0
 10 24  1  0  0  0  0
 11 25  1  0  0  0  0
 12 20  1  0  0  0  0
 12 13  2  0  0  0  0
 13 14  1  0  0  0  0
 14 19  2  0  0  0  0
 14 15  1  0  0  0  0
 15 16  2  0  0  0  0
 15 26  1  0  0  0  0
 16 17  1  0  0  0  0
 16 27  1  0  0  0  0
 17 18  2  0  0  0  0
 17 28  1  0  0  0  0
 18 19  1  0  0  0  0
 18 29  1  0  0  0  0
 19 20  1  0  0  0  0
M  END
$$$$
