ZINC000000036700      none
 OpenBabel11202420153D

 41 42  0  0  0  0  0  0  0  0999 V2000
   34.2369   32.8599   53.7467 C   0  0  0  0  0  0  0  0  0  0  0  0
   33.2315   32.9084   54.8990 C   0  0  0  0  0  0  0  0  0  0  0  0
   33.4056   34.1441   55.6415 O   0  0  0  0  0  0  0  0  0  0  0  0
   32.5906   34.3439   56.6971 C   0  0  0  0  0  0  0  0  0  0  0  0
   31.7573   33.5077   56.9887 O   0  0  0  0  0  0  0  0  0  0  0  0
   32.7095   35.5702   57.4938 C   0  0  0  0  0  0  0  0  0  0  0  0
   32.4329   35.7110   58.8230 C   0  0  0  0  0  0  0  0  0  0  0  0
   31.9457   34.6093   59.7286 C   0  0  0  0  0  0  0  0  0  0  0  0
   32.6620   36.9892   59.2055 N   0  0  0  0  0  0  0  0  0  0  0  0
   32.4710   37.5018   60.5644 C   0  0  0  0  0  0  0  0  0  0  0  0
   31.0399   38.0207   60.7175 C   0  0  0  0  0  0  0  0  0  0  0  0
   30.8536   38.5207   62.0430 O   0  0  0  0  0  0  0  0  0  0  0  0
   33.0953   37.7432   58.1328 C   0  0  0  0  0  0  0  0  0  0  0  0
   33.4659   39.0774   57.9963 C   0  0  0  0  0  0  0  0  0  0  0  0
   33.8733   39.5572   56.7715 C   0  0  0  0  0  0  0  0  0  0  0  0
   33.9237   38.7169   55.6630 C   0  0  0  0  0  0  0  0  0  0  0  0
   34.3273   39.2053   54.4598 O   0  0  0  0  0  0  0  0  0  0  0  0
   34.9405   38.3476   53.6286 C   0  0  0  0  0  0  0  0  0  0  0  0
   34.8213   38.5283   52.1372 C   0  0  0  0  0  0  0  0  0  0  0  0
   35.5880   37.4310   54.0763 O   0  0  0  0  0  0  0  0  0  0  0  0
   33.5643   37.3875   55.7818 C   0  0  0  0  0  0  0  0  0  0  0  0
   33.1516   36.8938   57.0166 C   0  0  0  0  0  0  0  0  0  0  0  0
   34.1063   31.9323   53.1894 H   0  0  0  0  0  0  0  0  0  0  0  0
   34.0706   33.7087   53.0835 H   0  0  0  0  0  0  0  0  0  0  0  0
   35.2501   32.9041   54.1464 H   0  0  0  0  0  0  0  0  0  0  0  0
   33.3978   32.0595   55.5622 H   0  0  0  0  0  0  0  0  0  0  0  0
   32.2184   32.8642   54.4993 H   0  0  0  0  0  0  0  0  0  0  0  0
   30.8560   34.5862   59.7188 H   0  0  0  0  0  0  0  0  0  0  0  0
   32.3326   33.6527   59.3775 H   0  0  0  0  0  0  0  0  0  0  0  0
   32.2961   34.7923   60.7443 H   0  0  0  0  0  0  0  0  0  0  0  0
   32.6459   36.7010   61.2829 H   0  0  0  0  0  0  0  0  0  0  0  0
   33.1737   38.3145   60.7483 H   0  0  0  0  0  0  0  0  0  0  0  0
   30.8650   38.8216   59.9991 H   0  0  0  0  0  0  0  0  0  0  0  0
   30.3372   37.2080   60.5336 H   0  0  0  0  0  0  0  0  0  0  0  0
   30.9934   37.8605   62.7358 H   0  0  0  0  0  0  0  0  0  0  0  0
   33.4300   39.7378   58.8501 H   0  0  0  0  0  0  0  0  0  0  0  0
   34.1557   40.5947   56.6700 H   0  0  0  0  0  0  0  0  0  0  0  0
   35.6307   39.1663   51.7827 H   0  0  0  0  0  0  0  0  0  0  0  0
   34.8834   37.5566   51.6475 H   0  0  0  0  0  0  0  0  0  0  0  0
   33.8634   38.9926   51.9029 H   0  0  0  0  0  0  0  0  0  0  0  0
   33.6038   36.7353   54.9219 H   0  0  0  0  0  0  0  0  0  0  0  0
  1  2  1  0  0  0  0
  1 23  1  0  0  0  0
  1 24  1  0  0  0  0
  1 25  1  0  0  0  0
  2  3  1  0  0  0  0
  2 26  1  0  0  0  0
  2 27  1  0  0  0  0
  3  4  1  0  0  0  0
  4  5  2  0  0  0  0
  4  6  1  0  0  0  0
  6 22  1  0  0  0  0
  6  7  2  0  0  0  0
  7  8  1  0  0  0  0
  7  9  1  0  0  0  0
  8 28  1  0  0  0  0
  8 29  1  0  0  0  0
  8 30  1  0  0  0  0
  9 10  1  0  0  0  0
  9 13  1  0  0  0  0
 10 11  1  0  0  0  0
 10 31  1  0  0  0  0
 10 32  1  0  0  0  0
 11 12  1  0  0  0  0
 11 33  1  0  0  0  0
 11 34  1  0  0  0  0
 12 35  1  0  0  0  0
 13 22  2  0  0  0  0
 13 14  1  0  0  0  0
 14 15  2  0  0  0  0
 14 36  1  0  0  0  0
 15 16  1  0  0  0  0
 15 37  1  0  0  0  0
 16 17  1  0  0  0  0
 16 21  2  0  0  0  0
 17 18  1  0  0  0  0
 18 19  1  0  0  0  0
 18 20  2  0  0  0  0
 19 38  1  0  0  0  0
 19 39  1  0  0  0  0
 19 40  1  0  0  0  0
 21 22  1  0  0  0  0
 21 41  1  0  0  0  0
M  END
$$$$
