ZINC000000009313      none
 OpenBabel11202420153D

 27 28  0  0  0  0  0  0  0  0999 V2000
   32.4207   37.1115   64.7215 C   0  0  0  0  0  0  0  0  0  0  0  0
   32.8237   36.9505   63.3359 O   0  0  0  0  0  0  0  0  0  0  0  0
   31.8965   37.2171   62.3936 C   0  0  0  0  0  0  0  0  0  0  0  0
   30.7816   37.5745   62.7216 O   0  0  0  0  0  0  0  0  0  0  0  0
   32.2327   37.0761   60.9738 C   0  0  0  0  0  0  0  0  0  0  0  0
   32.0386   35.8984   60.3493 C   0  0  0  0  0  0  0  0  0  0  0  0
   32.3767   35.7567   58.9218 C   0  0  0  0  0  0  0  0  0  0  0  0
   32.1685   34.5199   58.2852 C   0  0  0  0  0  0  0  0  0  0  0  0
   32.4779   34.3770   56.9652 C   0  0  0  0  0  0  0  0  0  0  0  0
   33.0023   35.4893   56.2778 C   0  0  0  0  0  0  0  0  0  0  0  0
   33.3366   35.4121   54.9168 C   0  0  0  0  0  0  0  0  0  0  0  0
   33.8461   36.5055   54.2848 C   0  0  0  0  0  0  0  0  0  0  0  0
   34.0312   37.7061   54.9687 C   0  0  0  0  0  0  0  0  0  0  0  0
   33.7134   37.8196   56.2863 C   0  0  0  0  0  0  0  0  0  0  0  0
   33.1891   36.7100   56.9765 C   0  0  0  0  0  0  0  0  0  0  0  0
   32.8692   36.7943   58.2681 N   0  0  0  0  0  0  0  0  0  0  0  0
   31.5850   36.4458   64.9365 H   0  0  0  0  0  0  0  0  0  0  0  0
   33.2583   36.8658   65.3744 H   0  0  0  0  0  0  0  0  0  0  0  0
   32.1166   38.1440   64.8938 H   0  0  0  0  0  0  0  0  0  0  0  0
   32.6360   37.9165   60.4283 H   0  0  0  0  0  0  0  0  0  0  0  0
   31.6353   35.0580   60.8948 H   0  0  0  0  0  0  0  0  0  0  0  0
   31.7651   33.6860   58.8403 H   0  0  0  0  0  0  0  0  0  0  0  0
   32.3246   33.4352   56.4593 H   0  0  0  0  0  0  0  0  0  0  0  0
   33.1944   34.4890   54.3744 H   0  0  0  0  0  0  0  0  0  0  0  0
   34.1064   36.4428   53.2385 H   0  0  0  0  0  0  0  0  0  0  0  0
   34.4332   38.5600   54.4436 H   0  0  0  0  0  0  0  0  0  0  0  0
   33.8625   38.7573   56.8011 H   0  0  0  0  0  0  0  0  0  0  0  0
  1  2  1  0  0  0  0
  1 17  1  0  0  0  0
  1 18  1  0  0  0  0
  1 19  1  0  0  0  0
  2  3  1  0  0  0  0
  3  4  2  0  0  0  0
  3  5  1  0  0  0  0
  5  6  2  0  0  0  0
  5 20  1  0  0  0  0
  6  7  1  0  0  0  0
  6 21  1  0  0  0  0
  7 16  2  0  0  0  0
  7  8  1  0  0  0  0
  8  9  2  0  0  0  0
  8 22  1  0  0  0  0
  9 10  1  0  0  0  0
  9 23  1  0  0  0  0
 10 15  2  0  0  0  0
 10 11  1  0  0  0  0
 11 12  2  0  0  0  0
 11 24  1  0  0  0  0
 12 13  1  0  0  0  0
 12 25  1  0  0  0  0
 13 14  2  0  0  0  0
 13 26  1  0  0  0  0
 14 15  1  0  0  0  0
 14 27  1  0  0  0  0
 15 16  1  0  0  0  0
M  END
$$$$
