ZINC000000050758      none
 OpenBabel11202420153D

 21 22  0  0  0  0  0  0  0  0999 V2000
   34.7149   37.5689   53.1153 C   0  0  0  0  0  0  0  0  0  0  0  0
   34.3283   38.1576   54.3586 O   0  0  0  0  0  0  0  0  0  0  0  0
   33.8933   37.3145   55.3317 C   0  0  0  0  0  0  0  0  0  0  0  0
   33.8350   35.9483   55.0913 C   0  0  0  0  0  0  0  0  0  0  0  0
   33.3933   35.0871   56.0779 C   0  0  0  0  0  0  0  0  0  0  0  0
   33.0069   35.5804   57.3080 C   0  0  0  0  0  0  0  0  0  0  0  0
   33.0622   36.9506   57.5577 C   0  0  0  0  0  0  0  0  0  0  0  0
   32.6766   37.4457   58.7848 N   0  0  0  0  0  4  0  0  0  0  0  0
   32.6821   38.6803   59.1517 N   0  0  0  0  0  0  0  0  0  0  0  0
   32.2940   38.8147   60.2890 O   0  0  0  0  0  0  0  0  0  0  0  0
   31.9707   37.6325   60.8362 C   0  0  0  0  0  0  0  0  0  0  0  0
   31.5507   37.4381   61.9610 O   0  0  0  0  0  0  0  0  0  0  0  0
   32.2064   36.6992   59.8819 N   0  0  0  0  0  2  0  0  0  0  0  0
   33.5030   37.8187   56.5611 C   0  0  0  0  0  0  0  0  0  0  0  0
   35.0409   38.3504   52.4289 H   0  0  0  0  0  0  0  0  0  0  0  0
   35.5333   36.8688   53.2836 H   0  0  0  0  0  0  0  0  0  0  0  0
   33.8657   37.0382   52.6848 H   0  0  0  0  0  0  0  0  0  0  0  0
   34.1355   35.5575   54.1304 H   0  0  0  0  0  0  0  0  0  0  0  0
   33.3498   34.0251   55.8858 H   0  0  0  0  0  0  0  0  0  0  0  0
   32.6622   34.9048   58.0769 H   0  0  0  0  0  0  0  0  0  0  0  0
   33.5439   38.8816   56.7482 H   0  0  0  0  0  0  0  0  0  0  0  0
  1  2  1  0  0  0  0
  1 15  1  0  0  0  0
  1 16  1  0  0  0  0
  1 17  1  0  0  0  0
  2  3  1  0  0  0  0
  3 14  2  0  0  0  0
  3  4  1  0  0  0  0
  4  5  2  0  0  0  0
  4 18  1  0  0  0  0
  5  6  1  0  0  0  0
  5 19  1  0  0  0  0
  6  7  2  0  0  0  0
  6 20  1  0  0  0  0
  7  8  1  0  0  0  0
  7 14  1  0  0  0  0
  8 13  1  0  0  0  0
  8  9  2  0  0  0  0
  9 10  1  0  0  0  0
 10 11  1  0  0  0  0
 11 12  2  0  0  0  0
 11 13  1  0  0  0  0
 14 21  1  0  0  0  0
M  END
$$$$
