ZINC000000056391      none
 OpenBabel11202420153D

 18 18  0  0  0  0  0  0  0  0999 V2000
   32.9169   34.6700   56.9480 N   0  0  0  0  0  0  0  0  0  0  0  0
   33.3070   35.7820   56.2941 C   0  0  0  0  0  0  0  0  0  0  0  0
   33.6684   35.7106   55.1349 O   0  0  0  0  0  0  0  0  0  0  0  0
   33.2956   37.0832   56.9827 C   0  0  0  0  0  0  0  0  0  0  0  0
   33.7061   38.2397   56.3067 C   0  0  0  0  0  0  0  0  0  0  0  0
   34.1140   38.1630   55.0210 F   0  0  0  0  0  0  0  0  0  0  0  0
   33.6884   39.4583   56.9548 C   0  0  0  0  0  0  0  0  0  0  0  0
   34.0787   40.5751   56.3022 F   0  0  0  0  0  0  0  0  0  0  0  0
   33.2745   39.5375   58.2819 C   0  0  0  0  0  0  0  0  0  0  0  0
   33.2642   40.7692   58.9338 N   0  0  0  0  0  0  0  0  0  0  0  0
   32.8707   38.3902   58.9594 C   0  0  0  0  0  0  0  0  0  0  0  0
   32.4698   38.4731   60.2470 F   0  0  0  0  0  0  0  0  0  0  0  0
   32.8796   37.1681   58.3179 C   0  0  0  0  0  0  0  0  0  0  0  0
   32.4875   36.0554   58.9765 F   0  0  0  0  0  0  0  0  0  0  0  0
   32.9244   33.8127   56.4943 H   0  0  0  0  0  0  0  0  0  0  0  0
   32.6325   34.7263   57.8737 H   0  0  0  0  0  0  0  0  0  0  0  0
   32.9759   40.8262   59.8583 H   0  0  0  0  0  0  0  0  0  0  0  0
   33.5453   41.5695   58.4633 H   0  0  0  0  0  0  0  0  0  0  0  0
  1  2  1  0  0  0  0
  1 15  1  0  0  0  0
  1 16  1  0  0  0  0
  2  3  2  0  0  0  0
  2  4  1  0  0  0  0
  4 13  2  0  0  0  0
  4  5  1  0  0  0  0
  5  6  1  0  0  0  0
  5  7  2  0  0  0  0
  7  8  1  0  0  0  0
  7  9  1  0  0  0  0
  9 10  1  0  0  0  0
  9 11  2  0  0  0  0
 10 17  1  0  0  0  0
 10 18  1  0  0  0  0
 11 12  1  0  0  0  0
 11 13  1  0  0  0  0
 13 14  1  0  0  0  0
M  END
$$$$
