ZINC000000046878      none
 OpenBabel11202420153D

 35 37  0  0  1  0  0  0  0  0999 V2000
   31.4955   38.6451   65.3030 C   0  0  0  0  0  0  0  0  0  0  0  0
   30.0577   38.1403   64.3189 S   0  0  0  0  0  0  0  0  0  0  0  0
   29.3431   39.2794   63.8595 O   0  0  0  0  0  0  0  0  0  0  0  0
   29.3841   37.0546   64.9408 O   0  0  0  0  0  0  0  0  0  0  0  0
   30.7492   37.4421   62.8563 C   0  0  0  0  0  0  0  0  0  0  0  0
   31.0408   36.0866   62.8054 C   0  0  0  0  0  0  0  0  0  0  0  0
   31.5792   35.5302   61.6732 C   0  0  0  0  0  0  0  0  0  0  0  0
   31.8444   36.3292   60.5404 C   0  0  0  0  0  0  0  0  0  0  0  0
   32.3596   35.9617   59.3509 N   0  0  0  0  0  0  0  0  0  0  0  0
   32.5185   36.8731   58.4550 C   0  0  0  0  0  0  0  0  0  0  0  0
   33.0373   36.6559   57.1889 N   0  0  0  0  0  0  0  0  0  0  0  0
   33.1611   37.6836   56.3259 C   0  0  0  0  0  0  0  0  0  0  0  0
   32.8183   38.7986   56.6577 O   0  0  0  0  0  0  0  0  0  0  0  0
   33.7254   37.4473   54.9487 C   0  0  2  0  0  0  0  0  0  0  0  0
   33.7521   38.3837   54.3913 H   0  0  0  0  0  0  0  0  0  0  0  0
   32.8614   36.4152   54.1984 C   0  0  0  0  0  0  0  0  0  0  0  0
   33.8468   35.2735   53.8487 C   0  0  0  0  0  0  0  0  0  0  0  0
   35.2193   35.9926   53.9418 C   0  0  0  0  0  0  0  0  0  0  0  0
   35.0512   36.9013   55.0509 O   0  0  0  0  0  0  0  0  0  0  0  0
   31.9765   38.4308   59.0640 S   0  0  0  0  0  0  0  0  0  0  0  0
   31.5458   37.6936   60.6052 C   0  0  0  0  0  0  0  0  0  0  0  0
   30.9997   38.2415   61.7636 C   0  0  0  0  0  0  0  0  0  0  0  0
   32.0819   39.3732   64.7425 H   0  0  0  0  0  0  0  0  0  0  0  0
   31.1572   39.0931   66.2373 H   0  0  0  0  0  0  0  0  0  0  0  0
   32.1114   37.7726   65.5205 H   0  0  0  0  0  0  0  0  0  0  0  0
   30.8423   35.4640   63.6652 H   0  0  0  0  0  0  0  0  0  0  0  0
   31.8015   34.4736   61.6482 H   0  0  0  0  0  0  0  0  0  0  0  0
   33.3114   35.7640   56.9236 H   0  0  0  0  0  0  0  0  0  0  0  0
   32.0629   36.0462   54.8420 H   0  0  0  0  0  0  0  0  0  0  0  0
   32.4469   36.8529   53.2902 H   0  0  0  0  0  0  0  0  0  0  0  0
   33.7809   34.4659   54.5777 H   0  0  0  0  0  0  0  0  0  0  0  0
   33.6682   34.9008   52.8400 H   0  0  0  0  0  0  0  0  0  0  0  0
   35.4258   36.5419   53.0232 H   0  0  0  0  0  0  0  0  0  0  0  0
   36.0148   35.2768   54.1491 H   0  0  0  0  0  0  0  0  0  0  0  0
   30.7718   39.2963   61.8046 H   0  0  0  0  0  0  0  0  0  0  0  0
  1  2  1  0  0  0  0
  1 23  1  0  0  0  0
  1 24  1  0  0  0  0
  1 25  1  0  0  0  0
  2  3  2  0  0  0  0
  2  4  2  0  0  0  0
  2  5  1  0  0  0  0
  5 22  2  0  0  0  0
  5  6  1  0  0  0  0
  6  7  2  0  0  0  0
  6 26  1  0  0  0  0
  7  8  1  0  0  0  0
  7 27  1  0  0  0  0
  8 21  2  0  0  0  0
  8  9  1  0  0  0  0
  9 10  2  0  0  0  0
 10 11  1  0  0  0  0
 10 20  1  0  0  0  0
 11 12  1  0  0  0  0
 11 28  1  0  0  0  0
 12 13  2  0  0  0  0
 12 14  1  0  0  0  0
 14 15  1  6  0  0  0
 14 19  1  0  0  0  0
 14 16  1  0  0  0  0
 16 17  1  0  0  0  0
 16 29  1  0  0  0  0
 16 30  1  0  0  0  0
 17 18  1  0  0  0  0
 17 31  1  0  0  0  0
 17 32  1  0  0  0  0
 18 19  1  0  0  0  0
 18 33  1  0  0  0  0
 18 34  1  0  0  0  0
 20 21  1  0  0  0  0
 21 22  1  0  0  0  0
 22 35  1  0  0  0  0
M  END
$$$$
