ZINC000000049026      none
 OpenBabel11202420153D

 21 22  0  0  0  0  0  0  0  0999 V2000
   30.2479   34.5230   63.3662 F   0  0  0  0  0  0  0  0  0  0  0  0
   30.7911   35.4787   62.5809 C   0  0  0  0  0  0  0  0  0  0  0  0
   31.9744   36.0920   62.9562 C   0  0  0  0  0  0  0  0  0  0  0  0
   32.5320   37.0700   62.1554 C   0  0  0  0  0  0  0  0  0  0  0  0
   31.9057   37.4385   60.9729 C   0  0  0  0  0  0  0  0  0  0  0  0
   32.4698   38.4300   60.1596 N   0  0  0  0  0  0  0  0  0  0  0  0
   32.8337   38.1334   58.8611 C   0  0  0  0  0  0  0  0  0  0  0  0
   32.6493   36.9066   58.3809 N   0  0  0  0  0  0  0  0  0  0  0  0
   32.9993   36.6257   57.1371 C   0  0  0  0  0  0  0  0  0  0  0  0
   32.7657   35.0232   56.5116 Cl  0  0  0  0  0  0  0  0  0  0  0  0
   33.5329   37.5641   56.3697 N   0  0  0  0  0  0  0  0  0  0  0  0
   33.7178   38.7864   56.8450 C   0  0  0  0  0  0  0  0  0  0  0  0
   34.4172   40.0128   55.8349 Cl  0  0  0  0  0  0  0  0  0  0  0  0
   33.3700   39.0736   58.0878 N   0  0  0  0  0  0  0  0  0  0  0  0
   30.7145   36.8261   60.5997 C   0  0  0  0  0  0  0  0  0  0  0  0
   30.0993   37.1865   59.4521 F   0  0  0  0  0  0  0  0  0  0  0  0
   30.1629   35.8439   61.4021 C   0  0  0  0  0  0  0  0  0  0  0  0
   32.4620   35.8054   63.8762 H   0  0  0  0  0  0  0  0  0  0  0  0
   33.4548   37.5478   62.4496 H   0  0  0  0  0  0  0  0  0  0  0  0
   32.6048   39.3249   60.5088 H   0  0  0  0  0  0  0  0  0  0  0  0
   29.2398   35.3649   61.1115 H   0  0  0  0  0  0  0  0  0  0  0  0
  1  2  1  0  0  0  0
  2 17  2  0  0  0  0
  2  3  1  0  0  0  0
  3  4  2  0  0  0  0
  3 18  1  0  0  0  0
  4  5  1  0  0  0  0
  4 19  1  0  0  0  0
  5  6  1  0  0  0  0
  5 15  2  0  0  0  0
  6  7  1  0  0  0  0
  6 20  1  0  0  0  0
  7 14  2  0  0  0  0
  7  8  1  0  0  0  0
  8  9  2  0  0  0  0
  9 10  1  0  0  0  0
  9 11  1  0  0  0  0
 11 12  2  0  0  0  0
 12 13  1  0  0  0  0
 12 14  1  0  0  0  0
 15 16  1  0  0  0  0
 15 17  1  0  0  0  0
 17 21  1  0  0  0  0
M  END
$$$$
