ZINC000000024660      none
 OpenBabel11202420153D

 28 29  0  0  0  0  0  0  0  0999 V2000
   31.3467   36.0849   63.6878 C   0  0  0  0  0  0  0  0  0  0  0  0
   32.1704   37.1476   62.9577 C   0  0  0  0  0  0  0  0  0  0  0  0
   31.2041   37.8212   61.5835 S   0  0  0  0  0  0  0  0  0  0  0  0
   31.6845   36.7137   60.2999 C   0  0  0  0  0  0  0  0  0  0  0  0
   31.5130   35.4108   60.2898 N   0  0  0  0  0  0  0  0  0  0  0  0
   31.9807   34.9127   59.2014 N   0  0  0  0  0  0  0  0  0  0  0  0
   32.4794   35.8665   58.4498 C   0  0  0  0  0  0  0  0  0  0  0  0
   33.1093   35.7007   57.1230 C   0  0  0  0  0  0  0  0  0  0  0  0
   33.7808   34.5182   56.8084 C   0  0  0  0  0  0  0  0  0  0  0  0
   34.3663   34.3694   55.5683 C   0  0  0  0  0  0  0  0  0  0  0  0
   34.2903   35.3888   54.6359 C   0  0  0  0  0  0  0  0  0  0  0  0
   33.6219   36.5619   54.9368 C   0  0  0  0  0  0  0  0  0  0  0  0
   33.0351   36.7270   56.1773 C   0  0  0  0  0  0  0  0  0  0  0  0
   32.3868   37.8750   56.4727 F   0  0  0  0  0  0  0  0  0  0  0  0
   32.3104   37.0487   59.1329 N   0  0  0  0  0  0  0  0  0  0  0  0
   32.7150   38.3879   58.6981 C   0  0  0  0  0  0  0  0  0  0  0  0
   30.4321   36.5355   64.0732 H   0  0  0  0  0  0  0  0  0  0  0  0
   31.0924   35.2828   62.9950 H   0  0  0  0  0  0  0  0  0  0  0  0
   31.9286   35.6792   64.5154 H   0  0  0  0  0  0  0  0  0  0  0  0
   33.0850   36.6969   62.5724 H   0  0  0  0  0  0  0  0  0  0  0  0
   32.4246   37.9497   63.6507 H   0  0  0  0  0  0  0  0  0  0  0  0
   33.8417   33.7210   57.5346 H   0  0  0  0  0  0  0  0  0  0  0  0
   34.8862   33.4547   55.3247 H   0  0  0  0  0  0  0  0  0  0  0  0
   34.7504   35.2664   53.6666 H   0  0  0  0  0  0  0  0  0  0  0  0
   33.5621   37.3518   54.2027 H   0  0  0  0  0  0  0  0  0  0  0  0
   31.9373   38.8146   58.0645 H   0  0  0  0  0  0  0  0  0  0  0  0
   32.8624   39.0242   59.5707 H   0  0  0  0  0  0  0  0  0  0  0  0
   33.6462   38.3214   58.1355 H   0  0  0  0  0  0  0  0  0  0  0  0
  1  2  1  0  0  0  0
  1 17  1  0  0  0  0
  1 18  1  0  0  0  0
  1 19  1  0  0  0  0
  2  3  1  0  0  0  0
  2 20  1  0  0  0  0
  2 21  1  0  0  0  0
  3  4  1  0  0  0  0
  4 15  1  0  0  0  0
  4  5  2  0  0  0  0
  5  6  1  0  0  0  0
  6  7  2  0  0  0  0
  7  8  1  0  0  0  0
  7 15  1  0  0  0  0
  8 13  2  0  0  0  0
  8  9  1  0  0  0  0
  9 10  2  0  0  0  0
  9 22  1  0  0  0  0
 10 11  1  0  0  0  0
 10 23  1  0  0  0  0
 11 12  2  0  0  0  0
 11 24  1  0  0  0  0
 12 13  1  0  0  0  0
 12 25  1  0  0  0  0
 13 14  1  0  0  0  0
 15 16  1  0  0  0  0
 16 26  1  0  0  0  0
 16 27  1  0  0  0  0
 16 28  1  0  0  0  0
M  END
$$$$
