ZINC000000037915      none
 OpenBabel11202420153D

 42 43  0  0  0  0  0  0  0  0999 V2000
   35.9835   38.0865   53.5163 C   0  0  0  0  0  0  0  0  0  0  0  0
   35.0040   38.6463   54.5499 C   0  0  0  0  0  0  0  0  0  0  0  0
   34.5578   37.5758   55.4233 O   0  0  0  0  0  0  0  0  0  0  0  0
   33.6853   37.9036   56.3959 C   0  0  0  0  0  0  0  0  0  0  0  0
   33.3075   39.0524   56.5112 O   0  0  0  0  0  0  0  0  0  0  0  0
   33.1876   36.8660   57.3225 C   0  0  0  0  0  0  0  0  0  0  0  0
   33.0651   35.5430   56.8923 C   0  0  0  0  0  0  0  0  0  0  0  0
   32.6047   34.5751   57.7611 C   0  0  0  0  0  0  0  0  0  0  0  0
   32.2534   34.9118   59.0553 C   0  0  0  0  0  0  0  0  0  0  0  0
   32.3665   36.2262   59.4916 C   0  0  0  0  0  0  0  0  0  0  0  0
   32.0091   36.5616   60.8025 N   0  0  0  0  0  0  0  0  0  0  0  0
   32.1393   35.6534   61.7898 C   0  0  0  0  0  0  0  0  0  0  0  0
   32.5664   34.5456   61.5422 O   0  0  0  0  0  0  0  0  0  0  0  0
   31.7544   36.0145   63.2014 C   0  0  0  0  0  0  0  0  0  0  0  0
   31.9580   37.4138   63.4074 O   0  0  0  0  0  0  0  0  0  0  0  0
   30.8696   38.1516   63.7509 C   0  0  0  0  0  0  0  0  0  0  0  0
   29.7745   38.2119   62.9011 C   0  0  0  0  0  0  0  0  0  0  0  0
   28.6696   38.9624   63.2525 C   0  0  0  0  0  0  0  0  0  0  0  0
   28.6543   39.6539   64.4500 C   0  0  0  0  0  0  0  0  0  0  0  0
   29.7443   39.5959   65.2983 C   0  0  0  0  0  0  0  0  0  0  0  0
   30.8494   38.8411   64.9544 C   0  0  0  0  0  0  0  0  0  0  0  0
   32.0345   38.7728   65.8828 C   0  0  0  0  0  0  0  0  0  0  0  0
   32.8331   37.2055   58.6283 C   0  0  0  0  0  0  0  0  0  0  0  0
   36.3186   38.8901   52.8607 H   0  0  0  0  0  0  0  0  0  0  0  0
   36.8428   37.6527   54.0279 H   0  0  0  0  0  0  0  0  0  0  0  0
   35.4869   37.3177   52.9243 H   0  0  0  0  0  0  0  0  0  0  0  0
   35.5007   39.4151   55.1419 H   0  0  0  0  0  0  0  0  0  0  0  0
   34.1448   39.0801   54.0384 H   0  0  0  0  0  0  0  0  0  0  0  0
   33.3343   35.2767   55.8808 H   0  0  0  0  0  0  0  0  0  0  0  0
   32.5142   33.5519   57.4279 H   0  0  0  0  0  0  0  0  0  0  0  0
   31.8900   34.1505   59.7296 H   0  0  0  0  0  0  0  0  0  0  0  0
   31.6675   37.4476   61.0006 H   0  0  0  0  0  0  0  0  0  0  0  0
   30.7043   35.7721   63.3649 H   0  0  0  0  0  0  0  0  0  0  0  0
   32.3708   35.4506   63.9016 H   0  0  0  0  0  0  0  0  0  0  0  0
   29.7859   37.6721   61.9657 H   0  0  0  0  0  0  0  0  0  0  0  0
   27.8169   39.0097   62.5913 H   0  0  0  0  0  0  0  0  0  0  0  0
   27.7895   40.2405   64.7227 H   0  0  0  0  0  0  0  0  0  0  0  0
   29.7301   40.1369   66.2328 H   0  0  0  0  0  0  0  0  0  0  0  0
   32.7303   39.5769   65.6434 H   0  0  0  0  0  0  0  0  0  0  0  0
   31.6957   38.8803   66.9130 H   0  0  0  0  0  0  0  0  0  0  0  0
   32.5347   37.8119   65.7631 H   0  0  0  0  0  0  0  0  0  0  0  0
   32.9221   38.2276   58.9657 H   0  0  0  0  0  0  0  0  0  0  0  0
  1  2  1  0  0  0  0
  1 24  1  0  0  0  0
  1 25  1  0  0  0  0
  1 26  1  0  0  0  0
  2  3  1  0  0  0  0
  2 27  1  0  0  0  0
  2 28  1  0  0  0  0
  3  4  1  0  0  0  0
  4  5  2  0  0  0  0
  4  6  1  0  0  0  0
  6 23  2  0  0  0  0
  6  7  1  0  0  0  0
  7  8  2  0  0  0  0
  7 29  1  0  0  0  0
  8  9  1  0  0  0  0
  8 30  1  0  0  0  0
  9 10  2  0  0  0  0
  9 31  1  0  0  0  0
 10 11  1  0  0  0  0
 10 23  1  0  0  0  0
 11 12  1  0  0  0  0
 11 32  1  0  0  0  0
 12 13  2  0  0  0  0
 12 14  1  0  0  0  0
 14 15  1  0  0  0  0
 14 33  1  0  0  0  0
 14 34  1  0  0  0  0
 15 16  1  0  0  0  0
 16 21  2  0  0  0  0
 16 17  1  0  0  0  0
 17 18  2  0  0  0  0
 17 35  1  0  0  0  0
 18 19  1  0  0  0  0
 18 36  1  0  0  0  0
 19 20  2  0  0  0  0
 19 37  1  0  0  0  0
 20 21  1  0  0  0  0
 20 38  1  0  0  0  0
 21 22  1  0  0  0  0
 22 39  1  0  0  0  0
 22 40  1  0  0  0  0
 22 41  1  0  0  0  0
 23 42  1  0  0  0  0
M  END
$$$$
