ZINC000000023995      none
 OpenBabel11202420153D

 42 44  0  0  1  0  0  0  0  0999 V2000
   35.5139   31.1894   53.3140 C   0  0  0  0  0  0  0  0  0  0  0  0
   35.0223   31.2769   54.7602 C   0  0  0  0  0  0  0  0  0  0  0  0
   35.0476   32.7140   55.2133 C   0  0  0  0  0  0  0  0  0  0  0  0
   36.0429   33.1669   55.7380 O   0  0  0  0  0  0  0  0  0  0  0  0
   33.9642   33.4956   55.0356 N   0  0  0  0  0  0  0  0  0  0  0  0
   33.9887   34.8926   55.4763 C   0  0  0  0  0  0  0  0  0  0  0  0
   32.8879   35.1194   56.5143 C   0  0  1  0  0  0  0  0  0  0  0  0
   31.9178   34.8955   56.0705 H   0  0  0  0  0  0  0  0  0  0  0  0
   33.1232   34.2022   57.7171 C   0  0  0  0  0  0  0  0  0  0  0  0
   32.0411   34.4612   58.7685 C   0  0  0  0  0  0  0  0  0  0  0  0
   32.0818   35.9100   59.1810 C   0  0  0  0  0  0  0  0  0  0  0  0
   31.6993   36.2738   60.4406 C   0  0  0  0  0  0  0  0  0  0  0  0
   31.2838   35.3218   61.3167 O   0  0  0  0  0  0  0  0  0  0  0  0
   32.2828   34.7187   62.1414 C   0  0  0  0  0  0  0  0  0  0  0  0
   31.7304   37.6133   60.8403 C   0  0  0  0  0  0  0  0  0  0  0  0
   32.1419   38.5881   59.9856 C   0  0  0  0  0  0  0  0  0  0  0  0
   32.5425   38.2492   58.6817 C   0  0  0  0  0  0  0  0  0  0  0  0
   32.9738   39.2312   57.7738 C   0  0  0  0  0  0  0  0  0  0  0  0
   33.3554   38.8681   56.5188 C   0  0  0  0  0  0  0  0  0  0  0  0
   33.3196   37.5342   56.1157 C   0  0  0  0  0  0  0  0  0  0  0  0
   32.9130   36.5558   56.9694 C   0  0  0  0  0  0  0  0  0  0  0  0
   32.5118   36.8914   58.2740 C   0  0  0  0  0  0  0  0  0  0  0  0
   34.8635   31.7841   52.6726 H   0  0  0  0  0  0  0  0  0  0  0  0
   36.5328   31.5717   53.2527 H   0  0  0  0  0  0  0  0  0  0  0  0
   35.4955   30.1500   52.9861 H   0  0  0  0  0  0  0  0  0  0  0  0
   35.6726   30.6822   55.4016 H   0  0  0  0  0  0  0  0  0  0  0  0
   34.0034   30.8945   54.8214 H   0  0  0  0  0  0  0  0  0  0  0  0
   33.1682   33.1335   54.6160 H   0  0  0  0  0  0  0  0  0  0  0  0
   33.8214   35.5465   54.6204 H   0  0  0  0  0  0  0  0  0  0  0  0
   34.9587   35.1166   55.9203 H   0  0  0  0  0  0  0  0  0  0  0  0
   34.1040   34.4084   58.1457 H   0  0  0  0  0  0  0  0  0  0  0  0
   33.0775   33.1614   57.3966 H   0  0  0  0  0  0  0  0  0  0  0  0
   32.2213   33.8301   59.6388 H   0  0  0  0  0  0  0  0  0  0  0  0
   31.0625   34.2301   58.3480 H   0  0  0  0  0  0  0  0  0  0  0  0
   31.8180   33.9783   62.7925 H   0  0  0  0  0  0  0  0  0  0  0  0
   33.0283   34.2324   61.5124 H   0  0  0  0  0  0  0  0  0  0  0  0
   32.7641   35.4854   62.7486 H   0  0  0  0  0  0  0  0  0  0  0  0
   31.4234   37.8776   61.8414 H   0  0  0  0  0  0  0  0  0  0  0  0
   32.1603   39.6189   60.3075 H   0  0  0  0  0  0  0  0  0  0  0  0
   33.0028   40.2692   58.0705 H   0  0  0  0  0  0  0  0  0  0  0  0
   33.6866   39.6253   55.8235 H   0  0  0  0  0  0  0  0  0  0  0  0
   33.6231   37.2730   55.1127 H   0  0  0  0  0  0  0  0  0  0  0  0
  1  2  1  0  0  0  0
  1 23  1  0  0  0  0
  1 24  1  0  0  0  0
  1 25  1  0  0  0  0
  2  3  1  0  0  0  0
  2 26  1  0  0  0  0
  2 27  1  0  0  0  0
  3  4  2  0  0  0  0
  3  5  1  0  0  0  0
  5  6  1  0  0  0  0
  5 28  1  0  0  0  0
  6  7  1  0  0  0  0
  6 29  1  0  0  0  0
  6 30  1  0  0  0  0
  7  8  1  6  0  0  0
  7 21  1  0  0  0  0
  7  9  1  0  0  0  0
  9 10  1  0  0  0  0
  9 31  1  0  0  0  0
  9 32  1  0  0  0  0
 10 11  1  0  0  0  0
 10 33  1  0  0  0  0
 10 34  1  0  0  0  0
 11 22  2  0  0  0  0
 11 12  1  0  0  0  0
 12 13  1  0  0  0  0
 12 15  2  0  0  0  0
 13 14  1  0  0  0  0
 14 35  1  0  0  0  0
 14 36  1  0  0  0  0
 14 37  1  0  0  0  0
 15 16  1  0  0  0  0
 15 38  1  0  0  0  0
 16 17  2  0  0  0  0
 16 39  1  0  0  0  0
 17 22  1  0  0  0  0
 17 18  1  0  0  0  0
 18 19  2  0  0  0  0
 18 40  1  0  0  0  0
 19 20  1  0  0  0  0
 19 41  1  0  0  0  0
 20 21  2  0  0  0  0
 20 42  1  0  0  0  0
 21 22  1  0  0  0  0
M  END
$$$$
