ZINC000000034482      none
 OpenBabel11202420153D

 41 43  0  0  0  0  0  0  0  0999 V2000
   31.1480   32.6185   59.3984 C   0  0  0  0  0  0  0  0  0  0  0  0
   31.4101   33.1060   57.9967 C   0  0  0  0  0  0  0  0  0  0  0  0
   31.1021   32.4160   57.0465 O   0  0  0  0  0  0  0  0  0  0  0  0
   32.0162   34.3697   57.7878 C   0  0  0  0  0  0  0  0  0  0  0  0
   32.8240   34.7362   56.7321 C   0  0  0  0  0  0  0  0  0  0  0  0
   33.2154   33.8394   55.5860 C   0  0  0  0  0  0  0  0  0  0  0  0
   33.2093   36.0175   56.8811 N   0  0  0  0  0  0  0  0  0  0  0  0
   34.0745   36.7413   55.9464 C   0  0  0  0  0  0  0  0  0  0  0  0
   33.2150   37.4281   54.8832 C   0  0  0  0  0  0  0  0  0  0  0  0
   34.1052   38.1726   53.9216 C   0  0  0  0  0  0  0  0  0  0  0  0
   34.4405   39.4904   54.1697 C   0  0  0  0  0  0  0  0  0  0  0  0
   35.2523   40.1754   53.2852 C   0  0  0  0  0  0  0  0  0  0  0  0
   35.7379   39.5385   52.1572 C   0  0  0  0  0  0  0  0  0  0  0  0
   36.7625   40.3965   51.0489 Cl  0  0  0  0  0  0  0  0  0  0  0  0
   35.4016   38.2197   51.9092 C   0  0  0  0  0  0  0  0  0  0  0  0
   34.5854   37.5374   52.7917 C   0  0  0  0  0  0  0  0  0  0  0  0
   32.6814   36.5546   58.0397 C   0  0  0  0  0  0  0  0  0  0  0  0
   32.7724   37.8115   58.6294 C   0  0  0  0  0  0  0  0  0  0  0  0
   32.1161   38.0666   59.8131 C   0  0  0  0  0  0  0  0  0  0  0  0
   31.3546   37.0772   60.4277 C   0  0  0  0  0  0  0  0  0  0  0  0
   30.7125   37.3434   61.5963 O   0  0  0  0  0  0  0  0  0  0  0  0
   31.2497   35.8242   59.8531 C   0  0  0  0  0  0  0  0  0  0  0  0
   31.9095   35.5583   58.6568 C   0  0  0  0  0  0  0  0  0  0  0  0
   30.1960   33.0168   59.7495 H   0  0  0  0  0  0  0  0  0  0  0  0
   31.1099   31.5292   59.4031 H   0  0  0  0  0  0  0  0  0  0  0  0
   31.9482   32.9569   60.0565 H   0  0  0  0  0  0  0  0  0  0  0  0
   34.1371   33.3133   55.8347 H   0  0  0  0  0  0  0  0  0  0  0  0
   32.4215   33.1151   55.4039 H   0  0  0  0  0  0  0  0  0  0  0  0
   33.3707   34.4411   54.6905 H   0  0  0  0  0  0  0  0  0  0  0  0
   34.7563   36.0401   55.4652 H   0  0  0  0  0  0  0  0  0  0  0  0
   34.6489   37.4916   56.4896 H   0  0  0  0  0  0  0  0  0  0  0  0
   32.5333   38.1292   55.3644 H   0  0  0  0  0  0  0  0  0  0  0  0
   32.6407   36.6777   54.3399 H   0  0  0  0  0  0  0  0  0  0  0  0
   34.0647   39.9863   55.0524 H   0  0  0  0  0  0  0  0  0  0  0  0
   35.5105   41.2065   53.4766 H   0  0  0  0  0  0  0  0  0  0  0  0
   35.7762   37.7235   51.0261 H   0  0  0  0  0  0  0  0  0  0  0  0
   34.3228   36.5078   52.5982 H   0  0  0  0  0  0  0  0  0  0  0  0
   33.3612   38.5863   58.1608 H   0  0  0  0  0  0  0  0  0  0  0  0
   32.1934   39.0429   60.2685 H   0  0  0  0  0  0  0  0  0  0  0  0
   30.2091   36.5961   61.9476 H   0  0  0  0  0  0  0  0  0  0  0  0
   30.6589   35.0559   60.3297 H   0  0  0  0  0  0  0  0  0  0  0  0
  1  2  1  0  0  0  0
  1 24  1  0  0  0  0
  1 25  1  0  0  0  0
  1 26  1  0  0  0  0
  2  3  2  0  0  0  0
  2  4  1  0  0  0  0
  4 23  1  0  0  0  0
  4  5  2  0  0  0  0
  5  6  1  0  0  0  0
  5  7  1  0  0  0  0
  6 27  1  0  0  0  0
  6 28  1  0  0  0  0
  6 29  1  0  0  0  0
  7  8  1  0  0  0  0
  7 17  1  0  0  0  0
  8  9  1  0  0  0  0
  8 30  1  0  0  0  0
  8 31  1  0  0  0  0
  9 10  1  0  0  0  0
  9 32  1  0  0  0  0
  9 33  1  0  0  0  0
 10 16  2  0  0  0  0
 10 11  1  0  0  0  0
 11 12  2  0  0  0  0
 11 34  1  0  0  0  0
 12 13  1  0  0  0  0
 12 35  1  0  0  0  0
 13 14  1  0  0  0  0
 13 15  2  0  0  0  0
 15 16  1  0  0  0  0
 15 36  1  0  0  0  0
 16 37  1  0  0  0  0
 17 23  2  0  0  0  0
 17 18  1  0  0  0  0
 18 19  2  0  0  0  0
 18 38  1  0  0  0  0
 19 20  1  0  0  0  0
 19 39  1  0  0  0  0
 20 21  1  0  0  0  0
 20 22  2  0  0  0  0
 21 40  1  0  0  0  0
 22 23  1  0  0  0  0
 22 41  1  0  0  0  0
M  END
$$$$
