ZINC000000038657      none
 OpenBabel11202420153D

 43 44  0  0  0  0  0  0  0  0999 V2000
   30.9383   34.7610   64.3767 C   0  0  0  0  0  0  0  0  0  0  0  0
   30.4378   36.1610   64.1306 C   0  0  0  0  0  0  0  0  0  0  0  0
   29.3361   36.4882   64.5185 O   0  0  0  0  0  0  0  0  0  0  0  0
   31.2144   37.0497   63.4797 N   0  0  0  0  0  0  0  0  0  0  0  0
   30.7476   38.3474   63.2464 C   0  0  0  0  0  0  0  0  0  0  0  0
   30.6283   38.8057   61.9791 C   0  0  0  0  0  0  0  0  0  0  0  0
   31.1425   38.0061   60.8563 C   0  0  0  0  0  0  0  0  0  0  0  0
   32.1287   38.5295   60.0141 C   0  0  0  0  0  0  0  0  0  0  0  0
   32.6089   37.7719   58.9668 C   0  0  0  0  0  0  0  0  0  0  0  0
   32.1097   36.5008   58.7416 C   0  0  0  0  0  0  0  0  0  0  0  0
   31.1300   35.9778   59.5675 C   0  0  0  0  0  0  0  0  0  0  0  0
   30.6433   36.7206   60.6222 C   0  0  0  0  0  0  0  0  0  0  0  0
   30.3864   39.2129   64.3781 C   0  0  0  0  0  0  0  0  0  0  0  0
   31.2256   39.9337   64.8846 O   0  0  0  0  0  0  0  0  0  0  0  0
   29.1259   39.2083   64.8546 N   0  0  0  0  0  0  0  0  0  0  0  0
   28.7825   40.0316   65.9311 C   0  0  0  0  0  0  0  0  0  0  0  0
   27.4898   40.5275   66.0434 C   0  0  0  0  0  0  0  0  0  0  0  0
   27.1525   41.3362   67.1109 C   0  0  0  0  0  0  0  0  0  0  0  0
   25.7485   41.8693   67.2370 C   0  0  0  0  0  0  0  0  0  0  0  0
   28.1028   41.6615   68.0613 C   0  0  0  0  0  0  0  0  0  0  0  0
   29.3920   41.1741   67.9495 C   0  0  0  0  0  0  0  0  0  0  0  0
   30.4243   41.5312   68.9877 C   0  0  0  0  0  0  0  0  0  0  0  0
   29.7346   40.3602   66.8877 C   0  0  0  0  0  0  0  0  0  0  0  0
   31.9397   34.6547   63.9598 H   0  0  0  0  0  0  0  0  0  0  0  0
   30.9690   34.5694   65.4492 H   0  0  0  0  0  0  0  0  0  0  0  0
   30.2681   34.0465   63.8989 H   0  0  0  0  0  0  0  0  0  0  0  0
   32.0955   36.7882   63.1696 H   0  0  0  0  0  0  0  0  0  0  0  0
   30.1558   39.7585   61.7918 H   0  0  0  0  0  0  0  0  0  0  0  0
   32.5162   39.5228   60.1860 H   0  0  0  0  0  0  0  0  0  0  0  0
   33.3731   38.1732   58.3177 H   0  0  0  0  0  0  0  0  0  0  0  0
   32.4867   35.9141   57.9170 H   0  0  0  0  0  0  0  0  0  0  0  0
   30.7458   34.9849   59.3855 H   0  0  0  0  0  0  0  0  0  0  0  0
   29.8789   36.3110   61.2658 H   0  0  0  0  0  0  0  0  0  0  0  0
   28.4568   38.6336   64.4508 H   0  0  0  0  0  0  0  0  0  0  0  0
   26.7483   40.2775   65.2991 H   0  0  0  0  0  0  0  0  0  0  0  0
   25.6750   42.8256   66.7193 H   0  0  0  0  0  0  0  0  0  0  0  0
   25.0495   41.1608   66.7925 H   0  0  0  0  0  0  0  0  0  0  0  0
   25.5054   42.0069   68.2907 H   0  0  0  0  0  0  0  0  0  0  0  0
   27.8375   42.2977   68.8927 H   0  0  0  0  0  0  0  0  0  0  0  0
   30.9388   42.4448   68.6893 H   0  0  0  0  0  0  0  0  0  0  0  0
   29.9343   41.6875   69.9487 H   0  0  0  0  0  0  0  0  0  0  0  0
   31.1467   40.7196   69.0759 H   0  0  0  0  0  0  0  0  0  0  0  0
   30.7417   39.9798   66.8010 H   0  0  0  0  0  0  0  0  0  0  0  0
  1  2  1  0  0  0  0
  1 24  1  0  0  0  0
  1 25  1  0  0  0  0
  1 26  1  0  0  0  0
  2  3  2  0  0  0  0
  2  4  1  0  0  0  0
  4  5  1  0  0  0  0
  4 27  1  0  0  0  0
  5  6  2  0  0  0  0
  5 13  1  0  0  0  0
  6  7  1  0  0  0  0
  6 28  1  0  0  0  0
  7 12  2  0  0  0  0
  7  8  1  0  0  0  0
  8  9  2  0  0  0  0
  8 29  1  0  0  0  0
  9 10  1  0  0  0  0
  9 30  1  0  0  0  0
 10 11  2  0  0  0  0
 10 31  1  0  0  0  0
 11 12  1  0  0  0  0
 11 32  1  0  0  0  0
 12 33  1  0  0  0  0
 13 14  2  0  0  0  0
 13 15  1  0  0  0  0
 15 16  1  0  0  0  0
 15 34  1  0  0  0  0
 16 23  2  0  0  0  0
 16 17  1  0  0  0  0
 17 18  2  0  0  0  0
 17 35  1  0  0  0  0
 18 19  1  0  0  0  0
 18 20  1  0  0  0  0
 19 36  1  0  0  0  0
 19 37  1  0  0  0  0
 19 38  1  0  0  0  0
 20 21  2  0  0  0  0
 20 39  1  0  0  0  0
 21 22  1  0  0  0  0
 21 23  1  0  0  0  0
 22 40  1  0  0  0  0
 22 41  1  0  0  0  0
 22 42  1  0  0  0  0
 23 43  1  0  0  0  0
M  END
$$$$
