ZINC000000051987      none
 OpenBabel11202420153D

 24 25  0  0  0  0  0  0  0  0999 V2000
   33.2025   35.5771   55.7601 C   0  0  0  0  0  0  0  0  0  0  0  0
   33.2223   36.8884   56.5025 C   0  0  0  0  0  0  0  0  0  0  0  0
   33.6172   38.0409   55.8572 C   0  0  0  0  0  0  0  0  0  0  0  0
   33.6364   39.2481   56.5376 C   0  0  0  0  0  0  0  0  0  0  0  0
   34.0239   40.3742   55.8997 F   0  0  0  0  0  0  0  0  0  0  0  0
   33.2640   39.3035   57.8747 C   0  0  0  0  0  0  0  0  0  0  0  0
   33.2905   40.4822   58.5342 F   0  0  0  0  0  0  0  0  0  0  0  0
   32.8621   38.1567   58.5286 C   0  0  0  0  0  0  0  0  0  0  0  0
   32.8411   36.9376   57.8456 C   0  0  0  0  0  0  0  0  0  0  0  0
   32.4181   35.7068   58.5407 C   0  0  0  0  0  0  0  0  0  0  0  0
   32.8776   34.6327   58.2078 O   0  0  0  0  0  0  0  0  0  0  0  0
   31.5218   35.7742   59.5450 N   0  0  0  0  0  0  0  0  0  0  0  0
   30.5192   36.7040   59.6861 C   0  0  0  0  0  0  0  0  0  0  0  0
   29.8644   36.4005   60.8209 C   0  0  0  0  0  0  0  0  0  0  0  0
   30.4478   35.3227   61.3691 N   0  0  0  0  0  0  0  0  0  0  0  0
   31.4403   34.9368   60.6173 C   0  0  0  0  0  0  0  0  0  0  0  0
   34.1938   35.1252   55.7943 H   0  0  0  0  0  0  0  0  0  0  0  0
   32.4811   34.9062   56.2268 H   0  0  0  0  0  0  0  0  0  0  0  0
   32.9181   35.7513   54.7225 H   0  0  0  0  0  0  0  0  0  0  0  0
   33.9120   38.0029   54.8189 H   0  0  0  0  0  0  0  0  0  0  0  0
   32.5680   38.2006   59.5669 H   0  0  0  0  0  0  0  0  0  0  0  0
   30.2984   37.5199   59.0138 H   0  0  0  0  0  0  0  0  0  0  0  0
   29.0172   36.9350   61.2245 H   0  0  0  0  0  0  0  0  0  0  0  0
   32.0887   34.0953   60.8113 H   0  0  0  0  0  0  0  0  0  0  0  0
  1  2  1  0  0  0  0
  1 17  1  0  0  0  0
  1 18  1  0  0  0  0
  1 19  1  0  0  0  0
  2  9  2  0  0  0  0
  2  3  1  0  0  0  0
  3  4  2  0  0  0  0
  3 20  1  0  0  0  0
  4  5  1  0  0  0  0
  4  6  1  0  0  0  0
  6  7  1  0  0  0  0
  6  8  2  0  0  0  0
  8  9  1  0  0  0  0
  8 21  1  0  0  0  0
  9 10  1  0  0  0  0
 10 11  2  0  0  0  0
 10 12  1  0  0  0  0
 12 16  1  0  0  0  0
 12 13  1  0  0  0  0
 13 14  2  0  0  0  0
 13 22  1  0  0  0  0
 14 15  1  0  0  0  0
 14 23  1  0  0  0  0
 15 16  2  0  0  0  0
 16 24  1  0  0  0  0
M  END
$$$$
