ZINC000000022419      none
 OpenBabel11202420153D

 35 36  0  0  0  0  0  0  0  0999 V2000
   33.6603   34.7513   54.1783 N   0  0  0  0  0  0  0  0  0  0  0  0
   33.3798   35.0285   55.2435 C   0  0  0  0  0  0  0  0  0  0  0  0
   33.0262   35.3780   56.5865 C   0  0  0  0  0  0  0  0  0  0  0  0
   33.1785   36.6948   57.0299 C   0  0  0  0  0  0  0  0  0  0  0  0
   32.8388   37.0292   58.3209 C   0  0  0  0  0  0  0  0  0  0  0  0
   32.3429   36.0543   59.1874 C   0  0  0  0  0  0  0  0  0  0  0  0
   31.9778   36.4158   60.5777 C   0  0  0  0  0  0  0  0  0  0  0  0
   32.0870   35.4704   61.5971 C   0  0  0  0  0  0  0  0  0  0  0  0
   31.7462   35.8097   62.8892 C   0  0  0  0  0  0  0  0  0  0  0  0
   31.2941   37.0910   63.1759 C   0  0  0  0  0  0  0  0  0  0  0  0
   30.9583   37.4221   64.4500 O   0  0  0  0  0  0  0  0  0  0  0  0
   31.1395   38.7861   64.8352 C   0  0  0  0  0  0  0  0  0  0  0  0
   30.7107   38.9657   66.2928 C   0  0  0  0  0  0  0  0  0  0  0  0
   30.9017   40.4043   66.6990 C   0  0  0  0  0  0  0  0  0  0  0  0
   30.0004   41.2018   66.5479 O   0  0  0  0  0  0  0  0  0  0  0  0
   32.0738   40.8047   67.2302 N   0  0  0  0  0  0  0  0  0  0  0  0
   32.2532   42.1564   67.6119 O   0  0  0  0  0  0  0  0  0  0  0  0
   31.1793   38.0331   62.1622 C   0  0  0  0  0  0  0  0  0  0  0  0
   31.5239   37.7018   60.8690 C   0  0  0  0  0  0  0  0  0  0  0  0
   32.1956   34.7382   58.7478 C   0  0  0  0  0  0  0  0  0  0  0  0
   32.5289   34.4024   57.4553 C   0  0  0  0  0  0  0  0  0  0  0  0
   33.5631   37.4494   56.3597 H   0  0  0  0  0  0  0  0  0  0  0  0
   32.9564   38.0467   58.6638 H   0  0  0  0  0  0  0  0  0  0  0  0
   32.4385   34.4737   61.3747 H   0  0  0  0  0  0  0  0  0  0  0  0
   31.8306   35.0781   63.6792 H   0  0  0  0  0  0  0  0  0  0  0  0
   32.1899   39.0571   64.7293 H   0  0  0  0  0  0  0  0  0  0  0  0
   30.5326   39.4276   64.1962 H   0  0  0  0  0  0  0  0  0  0  0  0
   29.6603   38.6946   66.3986 H   0  0  0  0  0  0  0  0  0  0  0  0
   31.3176   38.3242   66.9317 H   0  0  0  0  0  0  0  0  0  0  0  0
   32.7945   40.1668   67.3510 H   0  0  0  0  0  0  0  0  0  0  0  0
   33.1256   42.3480   67.9825 H   0  0  0  0  0  0  0  0  0  0  0  0
   30.8231   39.0275   62.3877 H   0  0  0  0  0  0  0  0  0  0  0  0
   31.4383   38.4363   60.0818 H   0  0  0  0  0  0  0  0  0  0  0  0
   31.8159   33.9836   59.4207 H   0  0  0  0  0  0  0  0  0  0  0  0
   32.4111   33.3845   57.1141 H   0  0  0  0  0  0  0  0  0  0  0  0
  1  2  3  0  0  0  0
  2  3  1  0  0  0  0
  3 21  2  0  0  0  0
  3  4  1  0  0  0  0
  4  5  2  0  0  0  0
  4 22  1  0  0  0  0
  5  6  1  0  0  0  0
  5 23  1  0  0  0  0
  6  7  1  0  0  0  0
  6 20  2  0  0  0  0
  7 19  2  0  0  0  0
  7  8  1  0  0  0  0
  8  9  2  0  0  0  0
  8 24  1  0  0  0  0
  9 10  1  0  0  0  0
  9 25  1  0  0  0  0
 10 11  1  0  0  0  0
 10 18  2  0  0  0  0
 11 12  1  0  0  0  0
 12 13  1  0  0  0  0
 12 26  1  0  0  0  0
 12 27  1  0  0  0  0
 13 14  1  0  0  0  0
 13 28  1  0  0  0  0
 13 29  1  0  0  0  0
 14 15  2  0  0  0  0
 14 16  1  0  0  0  0
 16 17  1  0  0  0  0
 16 30  1  0  0  0  0
 17 31  1  0  0  0  0
 18 19  1  0  0  0  0
 18 32  1  0  0  0  0
 19 33  1  0  0  0  0
 20 21  1  0  0  0  0
 20 34  1  0  0  0  0
 21 35  1  0  0  0  0
M  END
$$$$
