ZINC000000052488      none
 OpenBabel11202420153D

 46 47  0  0  0  0  0  0  0  0999 V2000
   32.3590   35.9785   69.6087 C   0  0  0  0  0  0  0  0  0  0  0  0
   32.5195   36.0526   68.0890 C   0  0  0  0  0  0  0  0  0  0  0  0
   31.6207   37.1596   67.5346 C   0  0  0  0  0  0  0  0  0  0  0  0
   31.7788   37.2326   66.0376 C   0  0  0  0  0  0  0  0  0  0  0  0
   32.5361   36.4739   65.4701 O   0  0  0  0  0  0  0  0  0  0  0  0
   31.0789   38.1410   65.3295 N   0  0  0  0  0  0  0  0  0  0  0  0
   31.2250   38.2084   63.9481 C   0  0  0  0  0  0  0  0  0  0  0  0
   30.6075   39.0369   63.1611 N   0  0  0  0  0  0  0  0  0  0  0  0
   30.8549   38.9661   61.9250 N   0  0  0  0  0  0  0  0  0  0  0  0
   31.7091   38.0652   61.5557 C   0  0  0  0  0  0  0  0  0  0  0  0
   32.1605   37.7941   60.1437 C   0  0  0  0  0  0  0  0  0  0  0  0
   32.1645   36.3849   59.9070 O   0  0  0  0  0  0  0  0  0  0  0  0
   32.5497   35.9677   58.6723 C   0  0  0  0  0  0  0  0  0  0  0  0
   32.5777   34.6132   58.3740 C   0  0  0  0  0  0  0  0  0  0  0  0
   32.9701   34.1916   57.1183 C   0  0  0  0  0  0  0  0  0  0  0  0
   33.3405   35.1182   56.1611 C   0  0  0  0  0  0  0  0  0  0  0  0
   33.7745   34.6552   54.7943 C   0  0  0  0  0  0  0  0  0  0  0  0
   32.6353   33.8759   54.1342 C   0  0  0  0  0  0  0  0  0  0  0  0
   34.1280   35.8694   53.9330 C   0  0  0  0  0  0  0  0  0  0  0  0
   35.0009   33.7502   54.9280 C   0  0  0  0  0  0  0  0  0  0  0  0
   33.3080   36.4690   56.4543 C   0  0  0  0  0  0  0  0  0  0  0  0
   32.9163   36.8957   57.7085 C   0  0  0  0  0  0  0  0  0  0  0  0
   32.2436   37.2076   63.0015 S   0  0  0  0  0  0  0  0  0  0  0  0
   31.3198   35.7597   69.8540 H   0  0  0  0  0  0  0  0  0  0  0  0
   32.9994   35.1898   70.0036 H   0  0  0  0  0  0  0  0  0  0  0  0
   32.6435   36.9332   70.0511 H   0  0  0  0  0  0  0  0  0  0  0  0
   32.2350   35.0978   67.6467 H   0  0  0  0  0  0  0  0  0  0  0  0
   33.5588   36.2714   67.8437 H   0  0  0  0  0  0  0  0  0  0  0  0
   31.9052   38.1143   67.9769 H   0  0  0  0  0  0  0  0  0  0  0  0
   30.5814   36.9408   67.7799 H   0  0  0  0  0  0  0  0  0  0  0  0
   30.4734   38.7477   65.7834 H   0  0  0  0  0  0  0  0  0  0  0  0
   33.1663   38.1893   60.0017 H   0  0  0  0  0  0  0  0  0  0  0  0
   31.4781   38.2780   59.4450 H   0  0  0  0  0  0  0  0  0  0  0  0
   32.2932   33.8888   59.1228 H   0  0  0  0  0  0  0  0  0  0  0  0
   32.9920   33.1372   56.8856 H   0  0  0  0  0  0  0  0  0  0  0  0
   31.7616   34.5206   54.0389 H   0  0  0  0  0  0  0  0  0  0  0  0
   32.9493   33.5411   53.1455 H   0  0  0  0  0  0  0  0  0  0  0  0
   32.3834   33.0110   54.7477 H   0  0  0  0  0  0  0  0  0  0  0  0
   34.9397   36.4245   54.4035 H   0  0  0  0  0  0  0  0  0  0  0  0
   34.4421   35.5344   52.9444 H   0  0  0  0  0  0  0  0  0  0  0  0
   33.2544   36.5140   53.8378 H   0  0  0  0  0  0  0  0  0  0  0  0
   34.7490   32.8853   55.5416 H   0  0  0  0  0  0  0  0  0  0  0  0
   35.3150   33.4154   53.9394 H   0  0  0  0  0  0  0  0  0  0  0  0
   35.8126   34.3054   55.3985 H   0  0  0  0  0  0  0  0  0  0  0  0
   33.5938   37.1910   55.7036 H   0  0  0  0  0  0  0  0  0  0  0  0
   32.8957   37.9507   57.9384 H   0  0  0  0  0  0  0  0  0  0  0  0
  1  2  1  0  0  0  0
  1 24  1  0  0  0  0
  1 25  1  0  0  0  0
  1 26  1  0  0  0  0
  2  3  1  0  0  0  0
  2 27  1  0  0  0  0
  2 28  1  0  0  0  0
  3  4  1  0  0  0  0
  3 29  1  0  0  0  0
  3 30  1  0  0  0  0
  4  5  2  0  0  0  0
  4  6  1  0  0  0  0
  6  7  1  0  0  0  0
  6 31  1  0  0  0  0
  7 23  1  0  0  0  0
  7  8  2  0  0  0  0
  8  9  1  0  0  0  0
  9 10  2  0  0  0  0
 10 11  1  0  0  0  0
 10 23  1  0  0  0  0
 11 12  1  0  0  0  0
 11 32  1  0  0  0  0
 11 33  1  0  0  0  0
 12 13  1  0  0  0  0
 13 22  2  0  0  0  0
 13 14  1  0  0  0  0
 14 15  2  0  0  0  0
 14 34  1  0  0  0  0
 15 16  1  0  0  0  0
 15 35  1  0  0  0  0
 16 17  1  0  0  0  0
 16 21  2  0  0  0  0
 17 18  1  0  0  0  0
 17 19  1  0  0  0  0
 17 20  1  0  0  0  0
 18 36  1  0  0  0  0
 18 37  1  0  0  0  0
 18 38  1  0  0  0  0
 19 39  1  0  0  0  0
 19 40  1  0  0  0  0
 19 41  1  0  0  0  0
 20 42  1  0  0  0  0
 20 43  1  0  0  0  0
 20 44  1  0  0  0  0
 21 22  1  0  0  0  0
 21 45  1  0  0  0  0
 22 46  1  0  0  0  0
M  END
$$$$
