ZINC000000027640      none
 OpenBabel11202420153D

 40 40  0  0  0  0  0  0  0  0999 V2000
   34.2346   33.0771   54.8476 C   0  0  0  0  0  0  0  0  0  0  0  0
   33.8932   33.4782   56.2840 C   0  0  0  0  0  0  0  0  0  0  0  0
   32.4563   34.0006   56.3399 C   0  0  0  0  0  0  0  0  0  0  0  0
   32.1294   34.3847   57.7153 N   0  0  0  0  0  0  0  0  0  0  0  0
   31.5965   33.4734   58.5648 C   0  0  0  0  0  0  0  0  0  0  0  0
   31.1496   32.7095   59.2769 N   0  0  0  0  0  0  0  0  0  0  0  0
   32.3704   35.6771   58.1488 C   0  0  0  0  0  0  0  0  0  0  0  0
   32.8931   36.5707   57.3157 N   0  0  0  0  0  0  0  0  0  0  0  0
   33.1246   37.8119   57.7317 C   0  0  0  0  0  0  0  0  0  0  0  0
   33.6680   38.7397   56.8664 N   0  0  0  0  0  0  0  0  0  0  0  0
   33.9897   38.3566   55.4895 C   0  0  0  0  0  0  0  0  0  0  0  0
   34.5747   39.5608   54.7486 C   0  0  0  0  0  0  0  0  0  0  0  0
   32.8331   38.1591   58.9813 N   0  0  0  0  0  0  0  0  0  0  0  0
   32.3102   37.2652   59.8145 C   0  0  0  0  0  0  0  0  0  0  0  0
   32.0069   37.6255   61.1118 N   0  0  0  0  0  0  0  0  0  0  0  0
   31.4305   36.6400   62.0298 C   0  0  0  0  0  0  0  0  0  0  0  0
   31.8593   36.9652   63.4621 C   0  0  0  0  0  0  0  0  0  0  0  0
   29.9042   36.6838   61.9322 C   0  0  0  0  0  0  0  0  0  0  0  0
   32.0739   36.0253   59.3962 N   0  0  0  0  0  0  0  0  0  0  0  0
   35.2584   32.7049   54.8079 H   0  0  0  0  0  0  0  0  0  0  0  0
   33.5508   32.2956   54.5163 H   0  0  0  0  0  0  0  0  0  0  0  0
   34.1380   33.9449   54.1952 H   0  0  0  0  0  0  0  0  0  0  0  0
   34.5770   34.2598   56.6154 H   0  0  0  0  0  0  0  0  0  0  0  0
   33.9900   32.6104   56.9364 H   0  0  0  0  0  0  0  0  0  0  0  0
   31.7725   33.2192   56.0085 H   0  0  0  0  0  0  0  0  0  0  0  0
   32.3596   34.8685   55.6875 H   0  0  0  0  0  0  0  0  0  0  0  0
   33.8369   39.6453   57.1700 H   0  0  0  0  0  0  0  0  0  0  0  0
   34.7189   37.5465   55.4987 H   0  0  0  0  0  0  0  0  0  0  0  0
   33.0834   38.0241   54.9836 H   0  0  0  0  0  0  0  0  0  0  0  0
   33.8455   40.3709   54.7394 H   0  0  0  0  0  0  0  0  0  0  0  0
   35.4810   39.8934   55.2545 H   0  0  0  0  0  0  0  0  0  0  0  0
   34.8141   39.2759   53.7241 H   0  0  0  0  0  0  0  0  0  0  0  0
   32.1753   38.5311   61.4157 H   0  0  0  0  0  0  0  0  0  0  0  0
   31.7833   35.6441   61.7622 H   0  0  0  0  0  0  0  0  0  0  0  0
   32.9468   36.9340   63.5316 H   0  0  0  0  0  0  0  0  0  0  0  0
   31.5065   37.9611   63.7297 H   0  0  0  0  0  0  0  0  0  0  0  0
   31.4304   36.2320   64.1450 H   0  0  0  0  0  0  0  0  0  0  0  0
   29.5986   36.4521   60.9119 H   0  0  0  0  0  0  0  0  0  0  0  0
   29.4752   35.9505   62.6153 H   0  0  0  0  0  0  0  0  0  0  0  0
   29.5514   37.6797   62.1998 H   0  0  0  0  0  0  0  0  0  0  0  0
  1  2  1  0  0  0  0
  1 20  1  0  0  0  0
  1 21  1  0  0  0  0
  1 22  1  0  0  0  0
  2  3  1  0  0  0  0
  2 23  1  0  0  0  0
  2 24  1  0  0  0  0
  3  4  1  0  0  0  0
  3 25  1  0  0  0  0
  3 26  1  0  0  0  0
  4  5  1  0  0  0  0
  4  7  1  0  0  0  0
  5  6  3  0  0  0  0
  7 19  2  0  0  0  0
  7  8  1  0  0  0  0
  8  9  2  0  0  0  0
  9 10  1  0  0  0  0
  9 13  1  0  0  0  0
 10 11  1  0  0  0  0
 10 27  1  0  0  0  0
 11 12  1  0  0  0  0
 11 28  1  0  0  0  0
 11 29  1  0  0  0  0
 12 30  1  0  0  0  0
 12 31  1  0  0  0  0
 12 32  1  0  0  0  0
 13 14  2  0  0  0  0
 14 15  1  0  0  0  0
 14 19  1  0  0  0  0
 15 16  1  0  0  0  0
 15 33  1  0  0  0  0
 16 17  1  0  0  0  0
 16 18  1  0  0  0  0
 16 34  1  0  0  0  0
 17 35  1  0  0  0  0
 17 36  1  0  0  0  0
 17 37  1  0  0  0  0
 18 38  1  0  0  0  0
 18 39  1  0  0  0  0
 18 40  1  0  0  0  0
M  END
$$$$
