ZINC000000053029      none
 OpenBabel11202420153D

 25 25  0  0  0  0  0  0  0  0999 V2000
   32.2750   35.8185   52.2418 C   0  0  0  0  0  0  0  0  0  0  0  0
   33.4003   36.4701   53.0480 C   0  0  0  0  0  0  0  0  0  0  0  0
   32.9197   36.7872   54.3810 O   0  0  0  0  0  0  0  0  0  0  0  0
   33.7942   37.3704   55.2237 C   0  0  0  0  0  0  0  0  0  0  0  0
   34.9274   37.6076   54.8551 O   0  0  0  0  0  0  0  0  0  0  0  0
   33.3757   37.7213   56.5949 C   0  0  0  0  0  0  0  0  0  0  0  0
   32.9299   36.7322   57.4762 C   0  0  0  0  0  0  0  0  0  0  0  0
   32.8699   35.0783   56.9519 Cl  0  0  0  0  0  0  0  0  0  0  0  0
   32.5550   37.0419   58.7009 N   0  0  0  0  0  0  0  0  0  0  0  0
   32.5828   38.2841   59.1464 C   0  0  0  0  0  0  0  0  0  0  0  0
   32.0752   38.6209   60.7720 Cl  0  0  0  0  0  0  0  0  0  0  0  0
   33.0134   39.3276   58.3327 C   0  0  0  0  0  0  0  0  0  0  0  0
   33.0375   40.6396   58.8173 N   0  0  0  0  0  0  0  0  0  0  0  0
   33.4186   39.0506   57.0334 C   0  0  0  0  0  0  0  0  0  0  0  0
   33.8923   40.1515   56.1198 C   0  0  0  0  0  0  0  0  0  0  0  0
   31.9544   34.9034   52.7396 H   0  0  0  0  0  0  0  0  0  0  0  0
   31.4333   36.5073   52.1703 H   0  0  0  0  0  0  0  0  0  0  0  0
   32.6358   35.5805   51.2411 H   0  0  0  0  0  0  0  0  0  0  0  0
   33.7210   37.3853   52.5502 H   0  0  0  0  0  0  0  0  0  0  0  0
   34.2420   35.7814   53.1194 H   0  0  0  0  0  0  0  0  0  0  0  0
   32.7529   40.8264   59.7256 H   0  0  0  0  0  0  0  0  0  0  0  0
   33.3387   41.3625   58.2450 H   0  0  0  0  0  0  0  0  0  0  0  0
   34.9695   40.2766   56.2298 H   0  0  0  0  0  0  0  0  0  0  0  0
   33.6602   39.8916   55.0870 H   0  0  0  0  0  0  0  0  0  0  0  0
   33.3899   41.0827   56.3819 H   0  0  0  0  0  0  0  0  0  0  0  0
  1  2  1  0  0  0  0
  1 16  1  0  0  0  0
  1 17  1  0  0  0  0
  1 18  1  0  0  0  0
  2  3  1  0  0  0  0
  2 19  1  0  0  0  0
  2 20  1  0  0  0  0
  3  4  1  0  0  0  0
  4  5  2  0  0  0  0
  4  6  1  0  0  0  0
  6 14  2  0  0  0  0
  6  7  1  0  0  0  0
  7  8  1  0  0  0  0
  7  9  2  0  0  0  0
  9 10  1  0  0  0  0
 10 11  1  0  0  0  0
 10 12  2  0  0  0  0
 12 13  1  0  0  0  0
 12 14  1  0  0  0  0
 13 21  1  0  0  0  0
 13 22  1  0  0  0  0
 14 15  1  0  0  0  0
 15 23  1  0  0  0  0
 15 24  1  0  0  0  0
 15 25  1  0  0  0  0
M  END
$$$$
