ZINC000000035788      none
 OpenBabel11202420153D

 35 36  0  0  0  0  0  0  0  0999 V2000
   33.1129   40.0878   57.2684 C   0  0  0  0  0  0  0  0  0  0  0  0
   33.2207   38.7148   56.8873 O   0  0  0  0  0  0  0  0  0  0  0  0
   32.8992   37.7883   57.8248 C   0  0  0  0  0  0  0  0  0  0  0  0
   32.4869   38.1959   59.0890 C   0  0  0  0  0  0  0  0  0  0  0  0
   32.1615   37.2695   60.0384 C   0  0  0  0  0  0  0  0  0  0  0  0
   32.2423   35.9034   59.7407 C   0  0  0  0  0  0  0  0  0  0  0  0
   31.8935   34.9053   60.7599 C   0  0  0  0  0  0  0  0  0  0  0  0
   31.5346   35.2636   61.8618 O   0  0  0  0  0  0  0  0  0  0  0  0
   32.6520   35.4926   58.4661 C   0  0  0  0  0  0  0  0  0  0  0  0
   32.9827   36.4344   57.5182 C   0  0  0  0  0  0  0  0  0  0  0  0
   33.4290   35.9984   56.1464 C   0  0  0  0  0  0  0  0  0  0  0  0
   32.5684   34.9604   55.6730 O   0  0  0  0  0  0  0  0  0  0  0  0
   33.1127   34.0449   54.8289 C   0  0  0  0  0  0  0  0  0  0  0  0
   33.6981   32.8937   55.3362 C   0  0  0  0  0  0  0  0  0  0  0  0
   34.2510   31.9649   54.4763 C   0  0  0  0  0  0  0  0  0  0  0  0
   34.2219   32.1818   53.1108 C   0  0  0  0  0  0  0  0  0  0  0  0
   33.6388   33.3277   52.6028 C   0  0  0  0  0  0  0  0  0  0  0  0
   33.0843   34.2598   53.4589 C   0  0  0  0  0  0  0  0  0  0  0  0
   32.4438   35.5062   52.9042 C   0  0  0  0  0  0  0  0  0  0  0  0
   33.7742   40.2836   58.1125 H   0  0  0  0  0  0  0  0  0  0  0  0
   33.3983   40.7214   56.4287 H   0  0  0  0  0  0  0  0  0  0  0  0
   32.0840   40.3057   57.5548 H   0  0  0  0  0  0  0  0  0  0  0  0
   32.4234   39.2488   59.3208 H   0  0  0  0  0  0  0  0  0  0  0  0
   31.8414   37.5904   61.0187 H   0  0  0  0  0  0  0  0  0  0  0  0
   31.9565   33.8523   60.5285 H   0  0  0  0  0  0  0  0  0  0  0  0
   32.7121   34.4407   58.2290 H   0  0  0  0  0  0  0  0  0  0  0  0
   34.4523   35.6265   56.1985 H   0  0  0  0  0  0  0  0  0  0  0  0
   33.3851   36.8465   55.4634 H   0  0  0  0  0  0  0  0  0  0  0  0
   33.7217   32.7242   56.4025 H   0  0  0  0  0  0  0  0  0  0  0  0
   34.7067   31.0688   54.8706 H   0  0  0  0  0  0  0  0  0  0  0  0
   34.6552   31.4548   52.4401 H   0  0  0  0  0  0  0  0  0  0  0  0
   33.6170   33.4947   51.5360 H   0  0  0  0  0  0  0  0  0  0  0  0
   33.1911   36.2960   52.8285 H   0  0  0  0  0  0  0  0  0  0  0  0
   32.0361   35.2957   51.9154 H   0  0  0  0  0  0  0  0  0  0  0  0
   31.6407   35.8280   53.5673 H   0  0  0  0  0  0  0  0  0  0  0  0
  1  2  1  0  0  0  0
  1 20  1  0  0  0  0
  1 21  1  0  0  0  0
  1 22  1  0  0  0  0
  2  3  1  0  0  0  0
  3 10  2  0  0  0  0
  3  4  1  0  0  0  0
  4  5  2  0  0  0  0
  4 23  1  0  0  0  0
  5  6  1  0  0  0  0
  5 24  1  0  0  0  0
  6  7  1  0  0  0  0
  6  9  2  0  0  0  0
  7  8  2  0  0  0  0
  7 25  1  0  0  0  0
  9 10  1  0  0  0  0
  9 26  1  0  0  0  0
 10 11  1  0  0  0  0
 11 12  1  0  0  0  0
 11 27  1  0  0  0  0
 11 28  1  0  0  0  0
 12 13  1  0  0  0  0
 13 18  2  0  0  0  0
 13 14  1  0  0  0  0
 14 15  2  0  0  0  0
 14 29  1  0  0  0  0
 15 16  1  0  0  0  0
 15 30  1  0  0  0  0
 16 17  2  0  0  0  0
 16 31  1  0  0  0  0
 17 18  1  0  0  0  0
 17 32  1  0  0  0  0
 18 19  1  0  0  0  0
 19 33  1  0  0  0  0
 19 34  1  0  0  0  0
 19 35  1  0  0  0  0
M  END
$$$$
