ZINC000000036437      none
 OpenBabel11202420153D

 29 31  0  0  0  0  0  0  0  0999 V2000
   31.8249   39.8196   66.6959 N   0  0  0  0  0  0  0  0  0  0  0  0
   32.0883   38.9367   65.6874 N   0  0  0  0  0  0  0  0  0  0  0  0
   32.9785   37.8968   65.7392 C   0  0  0  0  0  0  0  0  0  0  0  0
   32.9721   37.2673   64.6073 N   0  0  0  0  0  0  0  0  0  0  0  0
   32.0570   37.8850   63.7533 N   0  0  0  0  0  0  0  0  0  0  0  0
   31.4707   37.8955   62.5208 C   0  0  0  0  0  0  0  0  0  0  0  0
   31.7879   36.7713   61.2017 S   0  0  0  0  0  0  0  0  0  0  0  0
   32.3792   37.8566   59.8739 C   0  0  0  0  0  0  0  0  0  0  0  0
   32.6985   37.0305   58.6546 C   0  0  0  0  0  0  0  0  0  0  0  0
   32.5426   35.8283   58.6789 O   0  0  0  0  0  0  0  0  0  0  0  0
   33.1997   37.6829   57.4344 C   0  0  0  0  0  0  0  0  0  0  0  0
   33.5025   36.9190   56.3026 C   0  0  0  0  0  0  0  0  0  0  0  0
   33.9666   37.5383   55.1614 C   0  0  0  0  0  0  0  0  0  0  0  0
   34.1435   38.9108   55.1376 C   0  0  0  0  0  0  0  0  0  0  0  0
   33.8510   39.6731   56.2552 C   0  0  0  0  0  0  0  0  0  0  0  0
   33.3811   39.0692   57.4023 C   0  0  0  0  0  0  0  0  0  0  0  0
   30.6262   38.8998   62.5027 N   0  0  0  0  0  0  0  0  0  0  0  0
   30.6466   39.5120   63.6340 N   0  0  0  0  0  0  0  0  0  0  0  0
   31.5047   38.9346   64.4394 C   0  0  0  0  0  0  0  0  0  0  0  0
   32.4360   40.6209   66.6437 H   0  0  0  0  0  0  0  0  0  0  0  0
   30.8564   40.1023   66.6852 H   0  0  0  0  0  0  0  0  0  0  0  0
   33.5880   37.6392   66.5929 H   0  0  0  0  0  0  0  0  0  0  0  0
   31.6056   38.5840   59.6274 H   0  0  0  0  0  0  0  0  0  0  0  0
   33.2770   38.3789   60.2042 H   0  0  0  0  0  0  0  0  0  0  0  0
   33.3694   35.8475   56.3211 H   0  0  0  0  0  0  0  0  0  0  0  0
   34.1967   36.9504   54.2852 H   0  0  0  0  0  0  0  0  0  0  0  0
   34.5119   39.3895   54.2424 H   0  0  0  0  0  0  0  0  0  0  0  0
   33.9916   40.7435   56.2289 H   0  0  0  0  0  0  0  0  0  0  0  0
   33.1540   39.6652   58.2739 H   0  0  0  0  0  0  0  0  0  0  0  0
  1  2  1  0  0  0  0
  1 20  1  0  0  0  0
  1 21  1  0  0  0  0
  2 19  1  0  0  0  0
  2  3  1  0  0  0  0
  3  4  2  0  0  0  0
  3 22  1  0  0  0  0
  4  5  1  0  0  0  0
  5 19  1  0  0  0  0
  5  6  1  0  0  0  0
  6  7  1  0  0  0  0
  6 17  2  0  0  0  0
  7  8  1  0  0  0  0
  8  9  1  0  0  0  0
  8 23  1  0  0  0  0
  8 24  1  0  0  0  0
  9 10  2  0  0  0  0
  9 11  1  0  0  0  0
 11 16  2  0  0  0  0
 11 12  1  0  0  0  0
 12 13  2  0  0  0  0
 12 25  1  0  0  0  0
 13 14  1  0  0  0  0
 13 26  1  0  0  0  0
 14 15  2  0  0  0  0
 14 27  1  0  0  0  0
 15 16  1  0  0  0  0
 15 28  1  0  0  0  0
 16 29  1  0  0  0  0
 17 18  1  0  0  0  0
 18 19  2  0  0  0  0
M  END
$$$$
