ZINC000000040363      none
 OpenBabel11202420153D

 28 29  0  0  0  0  0  0  0  0999 V2000
   32.3173   37.8018   65.9201 C   0  0  0  0  0  0  0  0  0  0  0  0
   31.6743   36.5229   65.4485 C   0  0  0  0  0  0  0  0  0  0  0  0
   31.1138   35.6310   66.2078 N   0  0  0  0  0  0  0  0  0  0  0  0
   30.6363   34.5881   65.3762 O   0  0  0  0  0  0  0  0  0  0  0  0
   30.9546   34.9315   64.0387 N   0  0  0  0  0  0  0  0  0  0  0  0
   31.5775   36.0782   64.0609 C   0  0  0  0  0  0  0  0  0  0  0  0
   32.0629   36.7650   62.9481 N   0  0  0  0  0  0  0  0  0  0  0  0
   31.9035   36.2469   61.7143 C   0  0  0  0  0  0  0  0  0  0  0  0
   31.3371   35.1816   61.5711 O   0  0  0  0  0  0  0  0  0  0  0  0
   32.3720   36.9097   60.6401 O   0  0  0  0  0  0  0  0  0  0  0  0
   32.1648   36.2923   59.3424 C   0  0  0  0  0  0  0  0  0  0  0  0
   32.7513   37.1717   58.2682 C   0  0  0  0  0  0  0  0  0  0  0  0
   33.2439   36.6080   57.1061 C   0  0  0  0  0  0  0  0  0  0  0  0
   33.7814   37.4148   56.1205 C   0  0  0  0  0  0  0  0  0  0  0  0
   33.8282   38.7849   56.2981 C   0  0  0  0  0  0  0  0  0  0  0  0
   33.3348   39.3485   57.4599 C   0  0  0  0  0  0  0  0  0  0  0  0
   32.7964   38.5419   58.4450 C   0  0  0  0  0  0  0  0  0  0  0  0
   31.5722   38.5971   65.9404 H   0  0  0  0  0  0  0  0  0  0  0  0
   32.7219   37.6571   66.9219 H   0  0  0  0  0  0  0  0  0  0  0  0
   33.1230   38.0759   65.2390 H   0  0  0  0  0  0  0  0  0  0  0  0
   32.5152   37.6155   63.0624 H   0  0  0  0  0  0  0  0  0  0  0  0
   31.0966   36.1667   59.1661 H   0  0  0  0  0  0  0  0  0  0  0  0
   32.6534   35.3182   59.3214 H   0  0  0  0  0  0  0  0  0  0  0  0
   33.2127   35.5371   56.9698 H   0  0  0  0  0  0  0  0  0  0  0  0
   34.1665   36.9744   55.2127 H   0  0  0  0  0  0  0  0  0  0  0  0
   34.2488   39.4150   55.5284 H   0  0  0  0  0  0  0  0  0  0  0  0
   33.3703   40.4190   57.5981 H   0  0  0  0  0  0  0  0  0  0  0  0
   32.4113   38.9823   59.3528 H   0  0  0  0  0  0  0  0  0  0  0  0
  1  2  1  0  0  0  0
  1 18  1  0  0  0  0
  1 19  1  0  0  0  0
  1 20  1  0  0  0  0
  2  6  1  0  0  0  0
  2  3  2  0  0  0  0
  3  4  1  0  0  0  0
  4  5  1  0  0  0  0
  5  6  2  0  0  0  0
  6  7  1  0  0  0  0
  7  8  1  0  0  0  0
  7 21  1  0  0  0  0
  8  9  2  0  0  0  0
  8 10  1  0  0  0  0
 10 11  1  0  0  0  0
 11 12  1  0  0  0  0
 11 22  1  0  0  0  0
 11 23  1  0  0  0  0
 12 17  2  0  0  0  0
 12 13  1  0  0  0  0
 13 14  2  0  0  0  0
 13 24  1  0  0  0  0
 14 15  1  0  0  0  0
 14 25  1  0  0  0  0
 15 16  2  0  0  0  0
 15 26  1  0  0  0  0
 16 17  1  0  0  0  0
 16 27  1  0  0  0  0
 17 28  1  0  0  0  0
M  END
$$$$
