ZINC000000057708      none
 OpenBabel11202420153D

 32 34  0  0  0  0  0  0  0  0999 V2000
   31.0791   38.1611   60.9863 O   0  0  0  0  0  0  0  0  0  0  0  0
   31.7758   37.4344   60.3037 C   0  0  0  0  0  0  0  0  0  0  0  0
   32.4913   37.9822   59.1375 C   0  0  0  0  0  0  0  0  0  0  0  0
   32.9661   39.3057   58.9895 C   0  0  0  0  0  0  0  0  0  0  0  0
   33.5426   39.4006   57.8231 N   0  0  0  0  0  0  0  0  0  0  0  0
   33.4666   38.1620   57.1765 N   0  0  0  0  0  0  0  0  0  0  0  0
   33.9740   37.8703   55.9031 C   0  0  0  0  0  0  0  0  0  0  0  0
   33.8320   36.5948   55.3731 C   0  0  0  0  0  0  0  0  0  0  0  0
   34.3327   36.3106   54.1177 C   0  0  0  0  0  0  0  0  0  0  0  0
   34.9748   37.2946   53.3887 C   0  0  0  0  0  0  0  0  0  0  0  0
   35.1181   38.5658   53.9141 C   0  0  0  0  0  0  0  0  0  0  0  0
   34.6196   38.8562   55.1689 C   0  0  0  0  0  0  0  0  0  0  0  0
   32.8192   37.3000   57.9813 C   0  0  0  0  0  0  0  0  0  0  0  0
   31.9046   36.0046   60.6431 C   0  0  0  0  0  0  0  0  0  0  0  0
   31.5064   35.0262   59.7279 C   0  0  0  0  0  0  0  0  0  0  0  0
   31.6338   33.6925   60.0492 C   0  0  0  0  0  0  0  0  0  0  0  0
   32.1454   33.3159   61.2807 C   0  0  0  0  0  0  0  0  0  0  0  0
   32.5377   34.2718   62.1963 C   0  0  0  0  0  0  0  0  0  0  0  0
   32.4217   35.6190   61.8879 C   0  0  0  0  0  0  0  0  0  0  0  0
   32.8064   36.5594   62.7868 O   0  0  0  0  0  0  0  0  0  0  0  0
   32.8686   40.0994   59.7154 H   0  0  0  0  0  0  0  0  0  0  0  0
   33.3303   35.8259   55.9419 H   0  0  0  0  0  0  0  0  0  0  0  0
   34.2186   35.3199   53.7031 H   0  0  0  0  0  0  0  0  0  0  0  0
   35.3654   37.0700   52.4073 H   0  0  0  0  0  0  0  0  0  0  0  0
   35.6208   39.3322   53.3426 H   0  0  0  0  0  0  0  0  0  0  0  0
   34.7322   39.8490   55.5788 H   0  0  0  0  0  0  0  0  0  0  0  0
   32.5984   36.2652   57.7646 H   0  0  0  0  0  0  0  0  0  0  0  0
   31.1033   35.3152   58.7684 H   0  0  0  0  0  0  0  0  0  0  0  0
   31.3299   32.9373   59.3395 H   0  0  0  0  0  0  0  0  0  0  0  0
   32.2382   32.2681   61.5254 H   0  0  0  0  0  0  0  0  0  0  0  0
   32.9359   33.9701   63.1539 H   0  0  0  0  0  0  0  0  0  0  0  0
   32.6868   37.4687   62.4802 H   0  0  0  0  0  0  0  0  0  0  0  0
  1  2  2  0  0  0  0
  2  3  1  0  0  0  0
  2 14  1  0  0  0  0
  3 13  2  0  0  0  0
  3  4  1  0  0  0  0
  4  5  2  0  0  0  0
  4 21  1  0  0  0  0
  5  6  1  0  0  0  0
  6  7  1  0  0  0  0
  6 13  1  0  0  0  0
  7 12  2  0  0  0  0
  7  8  1  0  0  0  0
  8  9  2  0  0  0  0
  8 22  1  0  0  0  0
  9 10  1  0  0  0  0
  9 23  1  0  0  0  0
 10 11  2  0  0  0  0
 10 24  1  0  0  0  0
 11 12  1  0  0  0  0
 11 25  1  0  0  0  0
 12 26  1  0  0  0  0
 13 27  1  0  0  0  0
 14 19  2  0  0  0  0
 14 15  1  0  0  0  0
 15 16  2  0  0  0  0
 15 28  1  0  0  0  0
 16 17  1  0  0  0  0
 16 29  1  0  0  0  0
 17 18  2  0  0  0  0
 17 30  1  0  0  0  0
 18 19  1  0  0  0  0
 18 31  1  0  0  0  0
 19 20  1  0  0  0  0
 20 32  1  0  0  0  0
M  END
$$$$
