ZINC000000028480      none
 OpenBabel11202420163D

 31 34  0  0  0  0  0  0  0  0999 V2000
   32.3430   38.1761   59.3852 C   0  0  0  0  0  0  0  0  0  0  0  0
   32.1361   36.9932   59.8932 N   0  0  0  0  0  0  0  0  0  0  0  0
   31.5708   36.8705   61.1326 C   0  0  0  0  0  0  0  0  0  0  0  0
   30.1685   36.7782   61.2476 C   0  0  0  0  0  0  0  0  0  0  0  0
   29.5613   36.6552   62.4498 C   0  0  0  0  0  0  0  0  0  0  0  0
   30.3360   36.6165   63.6311 C   0  0  0  0  0  0  0  0  0  0  0  0
   30.0546   36.5070   64.9167 N   0  0  0  0  0  0  0  0  0  0  0  0
   31.2474   36.5258   65.6479 N   0  0  0  0  0  0  0  0  0  0  0  0
   31.3093   36.4599   66.6137 H   0  0  0  0  0  0  0  0  0  0  0  0
   32.2919   36.6483   64.8168 C   0  0  0  0  0  0  0  0  0  0  0  0
   31.8005   36.7120   63.5245 C   0  0  0  0  0  0  0  0  0  0  0  0
   32.3846   36.8336   62.2482 C   0  0  0  0  0  0  0  0  0  0  0  0
   32.9508   38.3079   58.0523 C   0  0  0  0  0  0  0  0  0  0  0  0
   33.1743   39.5759   57.5054 C   0  0  0  0  0  0  0  0  0  0  0  0
   33.7485   39.6967   56.2589 C   0  0  0  0  0  0  0  0  0  0  0  0
   34.0987   38.5631   55.5375 C   0  0  0  0  0  0  0  0  0  0  0  0
   33.8788   37.2950   56.0766 C   0  0  0  0  0  0  0  0  0  0  0  0
   33.3077   37.1659   57.3278 C   0  0  0  0  0  0  0  0  0  0  0  0
   34.3105   36.3598   55.1802 O   0  0  0  0  0  0  0  0  0  0  0  0
   34.4179   37.0538   53.9234 C   0  0  0  0  0  0  0  0  0  0  0  0
   34.6673   38.4192   54.3057 O   0  0  0  0  0  0  0  0  0  0  0  0
   32.0680   39.0590   59.9432 H   0  0  0  0  0  0  0  0  0  0  0  0
   29.5641   36.8061   60.3530 H   0  0  0  0  0  0  0  0  0  0  0  0
   28.4849   36.5863   62.5070 H   0  0  0  0  0  0  0  0  0  0  0  0
   33.3320   36.6899   65.1045 H   0  0  0  0  0  0  0  0  0  0  0  0
   33.4574   36.9009   62.1435 H   0  0  0  0  0  0  0  0  0  0  0  0
   32.9004   40.4602   58.0618 H   0  0  0  0  0  0  0  0  0  0  0  0
   33.9250   40.6765   55.8405 H   0  0  0  0  0  0  0  0  0  0  0  0
   33.1373   36.1848   57.7459 H   0  0  0  0  0  0  0  0  0  0  0  0
   33.4860   36.9772   53.3630 H   0  0  0  0  0  0  0  0  0  0  0  0
   35.2503   36.6615   53.3393 H   0  0  0  0  0  0  0  0  0  0  0  0
  1  2  2  0  0  0  0
  1 13  1  0  0  0  0
  1 22  1  0  0  0  0
  2  3  1  0  0  0  0
  3 12  2  0  0  0  0
  3  4  1  0  0  0  0
  4  5  2  0  0  0  0
  4 23  1  0  0  0  0
  5  6  1  0  0  0  0
  5 24  1  0  0  0  0
  6 11  1  0  0  0  0
  6  7  2  0  0  0  0
  7  8  1  0  0  0  0
  8  9  1  0  0  0  0
  8 10  1  0  0  0  0
 10 11  2  0  0  0  0
 10 25  1  0  0  0  0
 11 12  1  0  0  0  0
 12 26  1  0  0  0  0
 13 18  2  0  0  0  0
 13 14  1  0  0  0  0
 14 15  2  0  0  0  0
 14 27  1  0  0  0  0
 15 16  1  0  0  0  0
 15 28  1  0  0  0  0
 16 21  1  0  0  0  0
 16 17  2  0  0  0  0
 17 18  1  0  0  0  0
 17 19  1  0  0  0  0
 18 29  1  0  0  0  0
 19 20  1  0  0  0  0
 20 21  1  0  0  0  0
 20 30  1  0  0  0  0
 20 31  1  0  0  0  0
M  END
$$$$
