ZINC000000007471      none
 OpenBabel11202420153D

 42 44  0  0  0  0  0  0  0  0999 V2000
   28.2673   33.1854   68.5894 C   0  0  0  0  0  0  0  0  0  0  0  0
   29.1188   33.7252   67.5265 N   0  0  0  0  0  0  0  0  0  0  0  0
   29.8378   34.8445   67.7420 C   0  0  0  0  0  0  0  0  0  0  0  0
   29.7798   35.4064   68.8183 O   0  0  0  0  0  0  0  0  0  0  0  0
   30.6974   35.3892   66.6692 C   0  0  0  0  0  0  0  0  0  0  0  0
   31.8251   36.1464   66.9917 C   0  0  0  0  0  0  0  0  0  0  0  0
   32.6253   36.6537   65.9887 C   0  0  0  0  0  0  0  0  0  0  0  0
   32.3177   36.4106   64.6630 C   0  0  0  0  0  0  0  0  0  0  0  0
   31.1945   35.6626   64.3314 C   0  0  0  0  0  0  0  0  0  0  0  0
   30.8848   35.4235   62.9877 N   0  0  0  0  0  0  0  0  0  0  0  0
   31.8706   35.3496   62.0718 C   0  0  0  0  0  0  0  0  0  0  0  0
   33.0263   35.4903   62.4119 O   0  0  0  0  0  0  0  0  0  0  0  0
   31.5370   35.0920   60.6248 C   0  0  0  0  0  0  0  0  0  0  0  0
   32.0266   36.2428   59.7839 C   0  0  0  0  0  0  0  0  0  0  0  0
   32.0838   37.5211   60.3364 C   0  0  0  0  0  0  0  0  0  0  0  0
   32.5209   38.5818   59.6044 C   0  0  0  0  0  0  0  0  0  0  0  0
   32.9205   38.3890   58.2709 C   0  0  0  0  0  0  0  0  0  0  0  0
   33.3772   39.4600   57.4839 C   0  0  0  0  0  0  0  0  0  0  0  0
   33.7563   39.2357   56.1962 C   0  0  0  0  0  0  0  0  0  0  0  0
   33.6998   37.9573   55.6438 C   0  0  0  0  0  0  0  0  0  0  0  0
   33.2625   36.8965   56.3757 C   0  0  0  0  0  0  0  0  0  0  0  0
   32.8622   37.0893   57.7090 C   0  0  0  0  0  0  0  0  0  0  0  0
   32.4056   36.0184   58.4963 C   0  0  0  0  0  0  0  0  0  0  0  0
   30.3841   35.1484   65.3318 C   0  0  0  0  0  0  0  0  0  0  0  0
   27.7679   32.2847   68.2327 H   0  0  0  0  0  0  0  0  0  0  0  0
   28.8801   32.9417   69.4573 H   0  0  0  0  0  0  0  0  0  0  0  0
   27.5204   33.9285   68.8691 H   0  0  0  0  0  0  0  0  0  0  0  0
   29.1651   33.2769   66.6674 H   0  0  0  0  0  0  0  0  0  0  0  0
   32.0709   36.3352   68.0263 H   0  0  0  0  0  0  0  0  0  0  0  0
   33.4973   37.2393   66.2402 H   0  0  0  0  0  0  0  0  0  0  0  0
   32.9503   36.8066   63.8823 H   0  0  0  0  0  0  0  0  0  0  0  0
   29.9605   35.3110   62.7156 H   0  0  0  0  0  0  0  0  0  0  0  0
   30.4573   34.9936   60.5128 H   0  0  0  0  0  0  0  0  0  0  0  0
   32.0215   34.1717   60.2985 H   0  0  0  0  0  0  0  0  0  0  0  0
   31.7770   37.6720   61.3609 H   0  0  0  0  0  0  0  0  0  0  0  0
   32.5599   39.5667   60.0458 H   0  0  0  0  0  0  0  0  0  0  0  0
   33.4267   40.4560   57.8986 H   0  0  0  0  0  0  0  0  0  0  0  0
   34.1068   40.0604   55.5935 H   0  0  0  0  0  0  0  0  0  0  0  0
   34.0068   37.8064   54.6195 H   0  0  0  0  0  0  0  0  0  0  0  0
   33.2277   35.9109   55.9357 H   0  0  0  0  0  0  0  0  0  0  0  0
   32.3562   35.0223   58.0816 H   0  0  0  0  0  0  0  0  0  0  0  0
   29.5128   34.5637   65.0762 H   0  0  0  0  0  0  0  0  0  0  0  0
  1  2  1  0  0  0  0
  1 25  1  0  0  0  0
  1 26  1  0  0  0  0
  1 27  1  0  0  0  0
  2  3  1  0  0  0  0
  2 28  1  0  0  0  0
  3  4  2  0  0  0  0
  3  5  1  0  0  0  0
  5 24  2  0  0  0  0
  5  6  1  0  0  0  0
  6  7  2  0  0  0  0
  6 29  1  0  0  0  0
  7  8  1  0  0  0  0
  7 30  1  0  0  0  0
  8  9  2  0  0  0  0
  8 31  1  0  0  0  0
  9 10  1  0  0  0  0
  9 24  1  0  0  0  0
 10 11  1  0  0  0  0
 10 32  1  0  0  0  0
 11 12  2  0  0  0  0
 11 13  1  0  0  0  0
 13 14  1  0  0  0  0
 13 33  1  0  0  0  0
 13 34  1  0  0  0  0
 14 23  2  0  0  0  0
 14 15  1  0  0  0  0
 15 16  2  0  0  0  0
 15 35  1  0  0  0  0
 16 17  1  0  0  0  0
 16 36  1  0  0  0  0
 17 22  2  0  0  0  0
 17 18  1  0  0  0  0
 18 19  2  0  0  0  0
 18 37  1  0  0  0  0
 19 20  1  0  0  0  0
 19 38  1  0  0  0  0
 20 21  2  0  0  0  0
 20 39  1  0  0  0  0
 21 22  1  0  0  0  0
 21 40  1  0  0  0  0
 22 23  1  0  0  0  0
 23 41  1  0  0  0  0
 24 42  1  0  0  0  0
M  END
$$$$
