ZINC000000032752      none
 OpenBabel11202420153D

 29 31  0  0  0  0  0  0  0  0999 V2000
   33.7718   40.4548   58.9451 C   0  0  0  0  0  0  0  0  0  0  0  0
   32.8292   40.0366   57.9559 O   0  0  0  0  0  0  0  0  0  0  0  0
   33.2292   39.0668   57.0942 C   0  0  0  0  0  0  0  0  0  0  0  0
   33.8480   39.4046   55.9045 C   0  0  0  0  0  0  0  0  0  0  0  0
   34.2566   38.4159   55.0235 C   0  0  0  0  0  0  0  0  0  0  0  0
   34.9180   38.7935   53.7544 N   0  0  0  0  0  0  0  0  0  0  0  0
   35.1006   39.9681   53.4888 O   0  0  0  0  0  0  0  0  0  0  0  0
   35.2797   37.9296   52.9756 O   0  0  0  0  0  0  0  0  0  0  0  0
   34.0540   37.0839   55.3176 C   0  0  0  0  0  0  0  0  0  0  0  0
   33.4342   36.7201   56.5062 C   0  0  0  0  0  0  0  0  0  0  0  0
   33.1077   35.5318   57.0540 O   0  0  0  0  0  0  0  0  0  0  0  0
   32.4813   35.7488   58.3025 N   0  0  0  0  0  0  0  0  0  0  0  0
   32.4108   37.0227   58.5415 C   0  0  0  0  0  0  0  0  0  0  0  0
   31.8137   37.6688   59.7651 C   0  0  0  0  0  0  0  0  0  0  0  0
   32.8247   37.8139   60.7767 O   0  0  0  0  0  0  0  0  0  0  0  0
   32.1317   37.5882   62.0277 C   0  0  0  0  0  0  0  0  0  0  0  0
   31.1165   36.4874   61.6310 C   0  0  0  0  0  0  0  0  0  0  0  0
   30.7603   36.8438   60.2799 O   0  0  0  0  0  0  0  0  0  0  0  0
   33.0174   37.7166   57.4039 C   0  0  0  0  0  0  0  0  0  0  0  0
   33.3262   41.2318   59.5662 H   0  0  0  0  0  0  0  0  0  0  0  0
   34.0456   39.6037   59.5687 H   0  0  0  0  0  0  0  0  0  0  0  0
   34.6627   40.8476   58.4551 H   0  0  0  0  0  0  0  0  0  0  0  0
   34.0140   40.4436   55.6611 H   0  0  0  0  0  0  0  0  0  0  0  0
   34.3770   36.3229   54.6226 H   0  0  0  0  0  0  0  0  0  0  0  0
   31.4164   38.6496   59.5042 H   0  0  0  0  0  0  0  0  0  0  0  0
   31.6187   38.4915   62.3581 H   0  0  0  0  0  0  0  0  0  0  0  0
   32.8173   37.2285   62.7949 H   0  0  0  0  0  0  0  0  0  0  0  0
   30.2417   36.5179   62.2807 H   0  0  0  0  0  0  0  0  0  0  0  0
   31.5817   35.5022   61.6596 H   0  0  0  0  0  0  0  0  0  0  0  0
  1  2  1  0  0  0  0
  1 20  1  0  0  0  0
  1 21  1  0  0  0  0
  1 22  1  0  0  0  0
  2  3  1  0  0  0  0
  3 19  2  0  0  0  0
  3  4  1  0  0  0  0
  4  5  2  0  0  0  0
  4 23  1  0  0  0  0
  5  6  1  0  0  0  0
  5  9  1  0  0  0  0
  6  7  2  0  0  0  0
  6  8  2  0  0  0  0
  9 10  2  0  0  0  0
  9 24  1  0  0  0  0
 10 19  1  0  0  0  0
 10 11  1  0  0  0  0
 11 12  1  0  0  0  0
 12 13  2  0  0  0  0
 13 14  1  0  0  0  0
 13 19  1  0  0  0  0
 14 18  1  0  0  0  0
 14 15  1  0  0  0  0
 14 25  1  0  0  0  0
 15 16  1  0  0  0  0
 16 17  1  0  0  0  0
 16 26  1  0  0  0  0
 16 27  1  0  0  0  0
 17 18  1  0  0  0  0
 17 28  1  0  0  0  0
 17 29  1  0  0  0  0
M  END
$$$$
