ZINC000000000152      none
 OpenBabel11202420153D

 43 47  0  0  1  0  0  0  0  0999 V2000
   33.2606   39.6288   58.6266 O   0  0  0  0  0  0  0  0  0  0  0  0
   33.0954   38.4275   58.5004 C   0  0  0  0  0  0  0  0  0  0  0  0
   32.5583   37.5622   59.4666 C   0  0  0  0  0  0  0  0  0  0  0  0
   32.0855   37.9556   60.8423 C   0  0  0  0  0  0  0  0  0  0  0  0
   30.6009   37.6156   60.9880 C   0  0  2  0  0  0  0  0  0  0  0  0
   30.0611   37.8474   60.0698 H   0  0  0  0  0  0  0  0  0  0  0  0
   29.9829   38.3731   62.1907 C   0  0  0  0  0  0  0  0  0  0  0  0
   28.7786   37.4719   62.5574 C   0  0  0  0  0  0  0  0  0  0  0  0
   29.1304   36.1031   61.9434 C   0  0  0  0  0  0  0  0  0  0  0  0
   30.4298   36.2261   61.3412 O   0  0  0  0  0  0  0  0  0  0  0  0
   32.5339   36.3069   58.9412 C   0  0  0  0  0  0  0  0  0  0  0  0
   32.0820   35.1966   59.5628 O   0  0  0  0  0  0  0  0  0  0  0  0
   33.0490   36.3653   57.6707 N   0  0  0  0  0  0  0  0  0  0  0  0
   33.3997   37.6946   57.4079 N   0  0  0  0  0  0  0  0  0  0  0  0
   33.9548   38.0633   56.1825 C   0  0  0  0  0  0  0  0  0  0  0  0
   34.2983   39.3844   55.9352 C   0  0  0  0  0  0  0  0  0  0  0  0
   34.8491   39.7375   54.7185 C   0  0  0  0  0  0  0  0  0  0  0  0
   35.0604   38.7820   53.7391 C   0  0  0  0  0  0  0  0  0  0  0  0
   34.7234   37.4630   53.9698 C   0  0  0  0  0  0  0  0  0  0  0  0
   34.1691   37.0966   55.1916 C   0  0  0  0  0  0  0  0  0  0  0  0
   33.7978   35.6911   55.4690 C   0  0  0  0  0  0  0  0  0  0  0  0
   33.9928   34.6975   54.5157 C   0  0  0  0  0  0  0  0  0  0  0  0
   33.6373   33.3944   54.8025 C   0  0  0  0  0  0  0  0  0  0  0  0
   33.0890   33.0756   56.0332 C   0  0  0  0  0  0  0  0  0  0  0  0
   32.8906   34.0548   56.9871 C   0  0  0  0  0  0  0  0  0  0  0  0
   33.2435   35.3687   56.7145 C   0  0  0  0  0  0  0  0  0  0  0  0
   32.2283   39.0270   60.9831 H   0  0  0  0  0  0  0  0  0  0  0  0
   32.6583   37.4111   61.5929 H   0  0  0  0  0  0  0  0  0  0  0  0
   29.6486   39.3673   61.8941 H   0  0  0  0  0  0  0  0  0  0  0  0
   30.6899   38.4332   63.0182 H   0  0  0  0  0  0  0  0  0  0  0  0
   27.8614   37.8632   62.1173 H   0  0  0  0  0  0  0  0  0  0  0  0
   28.6765   37.3899   63.6395 H   0  0  0  0  0  0  0  0  0  0  0  0
   28.3941   35.8367   61.1851 H   0  0  0  0  0  0  0  0  0  0  0  0
   29.1533   35.3402   62.7216 H   0  0  0  0  0  0  0  0  0  0  0  0
   31.3472   34.7628   59.1081 H   0  0  0  0  0  0  0  0  0  0  0  0
   34.1365   40.1360   56.6937 H   0  0  0  0  0  0  0  0  0  0  0  0
   35.1161   40.7668   54.5296 H   0  0  0  0  0  0  0  0  0  0  0  0
   35.4910   39.0692   52.7912 H   0  0  0  0  0  0  0  0  0  0  0  0
   34.8897   36.7190   53.2048 H   0  0  0  0  0  0  0  0  0  0  0  0
   34.4200   34.9441   53.5549 H   0  0  0  0  0  0  0  0  0  0  0  0
   33.7873   32.6209   54.0637 H   0  0  0  0  0  0  0  0  0  0  0  0
   32.8138   32.0538   56.2488 H   0  0  0  0  0  0  0  0  0  0  0  0
   32.4619   33.7979   57.9445 H   0  0  0  0  0  0  0  0  0  0  0  0
  1  2  2  0  0  0  0
  2 14  1  0  0  0  0
  2  3  1  0  0  0  0
  3  4  1  0  0  0  0
  3 11  2  0  0  0  0
  4  5  1  0  0  0  0
  4 27  1  0  0  0  0
  4 28  1  0  0  0  0
  5  6  1  6  0  0  0
  5 10  1  0  0  0  0
  5  7  1  0  0  0  0
  7  8  1  0  0  0  0
  7 29  1  0  0  0  0
  7 30  1  0  0  0  0
  8  9  1  0  0  0  0
  8 31  1  0  0  0  0
  8 32  1  0  0  0  0
  9 10  1  0  0  0  0
  9 33  1  0  0  0  0
  9 34  1  0  0  0  0
 11 12  1  0  0  0  0
 11 13  1  0  0  0  0
 12 35  1  0  0  0  0
 13 26  1  0  0  0  0
 13 14  1  0  0  0  0
 14 15  1  0  0  0  0
 15 20  2  0  0  0  0
 15 16  1  0  0  0  0
 16 17  2  0  0  0  0
 16 36  1  0  0  0  0
 17 18  1  0  0  0  0
 17 37  1  0  0  0  0
 18 19  2  0  0  0  0
 18 38  1  0  0  0  0
 19 20  1  0  0  0  0
 19 39  1  0  0  0  0
 20 21  1  0  0  0  0
 21 26  2  0  0  0  0
 21 22  1  0  0  0  0
 22 23  2  0  0  0  0
 22 40  1  0  0  0  0
 23 24  1  0  0  0  0
 23 41  1  0  0  0  0
 24 25  2  0  0  0  0
 24 42  1  0  0  0  0
 25 26  1  0  0  0  0
 25 43  1  0  0  0  0
M  END
$$$$
