ZINC000000034974      none
 OpenBabel11202420153D

 33 35  0  0  0  0  0  0  0  0999 V2000
   35.0783   31.7520   55.6067 C   0  0  0  0  0  0  0  0  0  0  0  0
   33.7978   32.2925   55.2745 O   0  0  0  0  0  0  0  0  0  0  0  0
   33.6544   33.6414   55.3671 C   0  0  0  0  0  0  0  0  0  0  0  0
   33.9254   34.4443   54.2736 C   0  0  0  0  0  0  0  0  0  0  0  0
   33.7821   35.8213   54.3562 C   0  0  0  0  0  0  0  0  0  0  0  0
   33.3705   36.4074   55.5194 C   0  0  0  0  0  0  0  0  0  0  0  0
   33.0907   35.6146   56.6402 C   0  0  0  0  0  0  0  0  0  0  0  0
   32.6445   36.2284   57.8922 C   0  0  0  0  0  0  0  0  0  0  0  0
   32.3880   35.4107   58.9597 C   0  0  0  0  0  0  0  0  0  0  0  0
   31.9377   35.9795   60.2516 C   0  0  0  0  0  0  0  0  0  0  0  0
   32.2636   35.3425   61.4486 C   0  0  0  0  0  0  0  0  0  0  0  0
   31.8368   35.8742   62.6482 C   0  0  0  0  0  0  0  0  0  0  0  0
   31.0968   37.0429   62.6658 C   0  0  0  0  0  0  0  0  0  0  0  0
   30.6473   37.6115   63.9565 N   0  0  0  0  0  0  0  0  0  0  0  0
   30.9290   37.0504   65.0002 O   0  0  0  0  0  0  0  0  0  0  0  0
   29.9957   38.6403   63.9748 O   0  0  0  0  0  0  0  0  0  0  0  0
   30.7748   37.6823   61.4819 C   0  0  0  0  0  0  0  0  0  0  0  0
   31.1910   37.1571   60.2757 C   0  0  0  0  0  0  0  0  0  0  0  0
   32.5597   33.9635   58.8035 C   0  0  0  0  0  0  0  0  0  0  0  0
   32.3299   33.2260   59.7440 O   0  0  0  0  0  0  0  0  0  0  0  0
   32.9666   33.4418   57.6364 O   0  0  0  0  0  0  0  0  0  0  0  0
   33.2334   34.2191   56.5648 C   0  0  0  0  0  0  0  0  0  0  0  0
   35.0564   30.6683   55.4910 H   0  0  0  0  0  0  0  0  0  0  0  0
   35.8337   32.1731   54.9432 H   0  0  0  0  0  0  0  0  0  0  0  0
   35.3215   32.0022   56.6393 H   0  0  0  0  0  0  0  0  0  0  0  0
   34.2509   33.9946   53.3473 H   0  0  0  0  0  0  0  0  0  0  0  0
   33.9974   36.4350   53.4939 H   0  0  0  0  0  0  0  0  0  0  0  0
   33.2609   37.4804   55.5751 H   0  0  0  0  0  0  0  0  0  0  0  0
   32.5237   37.2986   57.9723 H   0  0  0  0  0  0  0  0  0  0  0  0
   32.8453   34.4327   61.4364 H   0  0  0  0  0  0  0  0  0  0  0  0
   32.0849   35.3794   63.5757 H   0  0  0  0  0  0  0  0  0  0  0  0
   30.1968   38.5944   61.5019 H   0  0  0  0  0  0  0  0  0  0  0  0
   30.9387   37.6569   59.3521 H   0  0  0  0  0  0  0  0  0  0  0  0
  1  2  1  0  0  0  0
  1 23  1  0  0  0  0
  1 24  1  0  0  0  0
  1 25  1  0  0  0  0
  2  3  1  0  0  0  0
  3 22  2  0  0  0  0
  3  4  1  0  0  0  0
  4  5  2  0  0  0  0
  4 26  1  0  0  0  0
  5  6  1  0  0  0  0
  5 27  1  0  0  0  0
  6  7  2  0  0  0  0
  6 28  1  0  0  0  0
  7 22  1  0  0  0  0
  7  8  1  0  0  0  0
  8  9  2  0  0  0  0
  8 29  1  0  0  0  0
  9 10  1  0  0  0  0
  9 19  1  0  0  0  0
 10 18  2  0  0  0  0
 10 11  1  0  0  0  0
 11 12  2  0  0  0  0
 11 30  1  0  0  0  0
 12 13  1  0  0  0  0
 12 31  1  0  0  0  0
 13 14  1  0  0  0  0
 13 17  2  0  0  0  0
 14 15  2  0  0  0  0
 14 16  2  0  0  0  0
 17 18  1  0  0  0  0
 17 32  1  0  0  0  0
 18 33  1  0  0  0  0
 19 20  2  0  0  0  0
 19 21  1  0  0  0  0
 21 22  1  0  0  0  0
M  END
$$$$
