ZINC000000032050      none
 OpenBabel11202420163D

 34 35  0  0  0  0  0  0  0  0999 V2000
   30.5605   34.0550   63.6498 C   0  0  0  0  0  0  0  0  0  0  0  0
   30.5423   35.3817   62.9352 C   0  0  0  0  0  0  0  0  0  0  0  0
   30.9300   35.4435   61.6738 C   0  0  0  0  0  0  0  0  0  0  0  0
   30.9000   36.7913   60.9841 C   0  0  0  0  0  0  0  0  0  0  0  0
   32.3151   37.0987   60.4904 C   0  0  0  0  0  0  0  0  0  0  0  0
   29.9948   36.6718   59.7565 C   0  0  0  0  0  0  0  0  0  0  0  0
   30.4374   37.9421   61.7775 N   0  0  0  0  0  0  0  0  0  0  0  0
   30.0657   37.7299   63.0561 C   0  0  0  0  0  0  0  0  0  0  0  0
   29.5177   39.0526   63.9947 S   0  0  0  0  0  0  0  0  0  0  0  0
   30.1191   36.5127   63.6137 N   0  0  0  0  0  0  0  0  0  0  0  0
   29.7031   36.3697   65.0111 C   0  0  0  0  0  0  0  0  0  0  0  0
   30.8946   36.5666   65.9125 C   0  0  0  0  0  0  0  0  0  0  0  0
   32.1431   36.8429   65.3757 C   0  0  0  0  0  0  0  0  0  0  0  0
   33.2105   37.0164   66.2432 C   0  0  0  0  0  0  0  0  0  0  0  0
   32.9965   36.9090   67.6045 C   0  0  0  0  0  0  0  0  0  0  0  0
   31.7951   36.6449   68.0796 N   0  0  0  0  0  0  0  0  0  0  0  0
   30.7558   36.4796   67.2846 C   0  0  0  0  0  0  0  0  0  0  0  0
   29.5716   33.5999   63.5961 H   0  0  0  0  0  0  0  0  0  0  0  0
   31.2894   33.3973   63.1762 H   0  0  0  0  0  0  0  0  0  0  0  0
   30.8339   34.2083   64.6937 H   0  0  0  0  0  0  0  0  0  0  0  0
   31.2583   34.5582   61.1494 H   0  0  0  0  0  0  0  0  0  0  0  0
   32.6324   36.3245   59.7918 H   0  0  0  0  0  0  0  0  0  0  0  0
   32.3227   38.0663   59.9884 H   0  0  0  0  0  0  0  0  0  0  0  0
   32.9986   37.1244   61.3391 H   0  0  0  0  0  0  0  0  0  0  0  0
   28.9909   36.3869   60.0717 H   0  0  0  0  0  0  0  0  0  0  0  0
   29.9549   37.6306   59.2396 H   0  0  0  0  0  0  0  0  0  0  0  0
   30.3934   35.9126   59.0836 H   0  0  0  0  0  0  0  0  0  0  0  0
   30.3969   38.8298   61.3888 H   0  0  0  0  0  0  0  0  0  0  0  0
   29.2901   35.3731   65.1672 H   0  0  0  0  0  0  0  0  0  0  0  0
   28.9448   37.1177   65.2427 H   0  0  0  0  0  0  0  0  0  0  0  0
   32.2805   36.9215   64.3074 H   0  0  0  0  0  0  0  0  0  0  0  0
   34.1967   37.2332   65.8601 H   0  0  0  0  0  0  0  0  0  0  0  0
   33.8229   37.0424   68.2869 H   0  0  0  0  0  0  0  0  0  0  0  0
   29.7860   36.2694   67.7106 H   0  0  0  0  0  0  0  0  0  0  0  0
  1  2  1  0  0  0  0
  1 18  1  0  0  0  0
  1 19  1  0  0  0  0
  1 20  1  0  0  0  0
  2 10  1  0  0  0  0
  2  3  2  0  0  0  0
  3  4  1  0  0  0  0
  3 21  1  0  0  0  0
  4  5  1  0  0  0  0
  4  6  1  0  0  0  0
  4  7  1  0  0  0  0
  5 22  1  0  0  0  0
  5 23  1  0  0  0  0
  5 24  1  0  0  0  0
  6 25  1  0  0  0  0
  6 26  1  0  0  0  0
  6 27  1  0  0  0  0
  7  8  1  0  0  0  0
  7 28  1  0  0  0  0
  8  9  2  0  0  0  0
  8 10  1  0  0  0  0
 10 11  1  0  0  0  0
 11 12  1  0  0  0  0
 11 29  1  0  0  0  0
 11 30  1  0  0  0  0
 12 17  2  0  0  0  0
 12 13  1  0  0  0  0
 13 14  2  0  0  0  0
 13 31  1  0  0  0  0
 14 15  1  0  0  0  0
 14 32  1  0  0  0  0
 15 16  2  0  0  0  0
 15 33  1  0  0  0  0
 16 17  1  0  0  0  0
 17 34  1  0  0  0  0
M  END
$$$$
