ZINC000000049666      none
 OpenBabel11202420153D

 38 39  0  0  0  0  0  0  0  0999 V2000
   30.6472   37.1776   63.8147 C   0  0  0  0  0  0  0  0  0  0  0  0
   31.8214   37.6178   62.9786 C   0  0  0  0  0  0  0  0  0  0  0  0
   32.9286   37.2017   63.2255 O   0  0  0  0  0  0  0  0  0  0  0  0
   31.6371   38.4724   61.9592 O   0  0  0  0  0  0  0  0  0  0  0  0
   31.9856   38.0390   60.7207 C   0  0  0  0  0  0  0  0  0  0  0  0
   31.9043   36.6866   60.4115 C   0  0  0  0  0  0  0  0  0  0  0  0
   32.2570   36.2429   59.1563 C   0  0  0  0  0  0  0  0  0  0  0  0
   32.6969   37.1545   58.1931 C   0  0  0  0  0  0  0  0  0  0  0  0
   33.0763   36.6832   56.8467 C   0  0  0  0  0  0  0  0  0  0  0  0
   33.8883   37.3065   56.1907 O   0  0  0  0  0  0  0  0  0  0  0  0
   32.5226   35.5617   56.3445 N   0  0  0  0  0  0  0  0  0  0  0  0
   32.8820   35.1151   55.0689 C   0  0  0  0  0  0  0  0  0  0  0  0
   33.2654   36.0276   54.0943 C   0  0  0  0  0  0  0  0  0  0  0  0
   33.6201   35.5833   52.8359 C   0  0  0  0  0  0  0  0  0  0  0  0
   34.0362   36.5726   51.7780 C   0  0  0  0  0  0  0  0  0  0  0  0
   33.5934   34.2315   52.5452 C   0  0  0  0  0  0  0  0  0  0  0  0
   33.2181   33.3200   53.5148 C   0  0  0  0  0  0  0  0  0  0  0  0
   32.8566   33.7583   54.7739 C   0  0  0  0  0  0  0  0  0  0  0  0
   32.4412   32.7648   55.8281 C   0  0  0  0  0  0  0  0  0  0  0  0
   32.7821   38.5128   58.5096 C   0  0  0  0  0  0  0  0  0  0  0  0
   32.4230   38.9490   59.7658 C   0  0  0  0  0  0  0  0  0  0  0  0
   30.2084   36.2794   63.3802 H   0  0  0  0  0  0  0  0  0  0  0  0
   30.9835   36.9636   64.8291 H   0  0  0  0  0  0  0  0  0  0  0  0
   29.9008   37.9715   63.8390 H   0  0  0  0  0  0  0  0  0  0  0  0
   31.5646   35.9825   61.1567 H   0  0  0  0  0  0  0  0  0  0  0  0
   32.1940   35.1916   58.9169 H   0  0  0  0  0  0  0  0  0  0  0  0
   31.8748   35.0644   56.8679 H   0  0  0  0  0  0  0  0  0  0  0  0
   33.2858   37.0835   54.3204 H   0  0  0  0  0  0  0  0  0  0  0  0
   35.1141   36.7264   51.8284 H   0  0  0  0  0  0  0  0  0  0  0  0
   33.7700   36.1861   50.7943 H   0  0  0  0  0  0  0  0  0  0  0  0
   33.5256   37.5209   51.9462 H   0  0  0  0  0  0  0  0  0  0  0  0
   33.8713   33.8865   51.5603 H   0  0  0  0  0  0  0  0  0  0  0  0
   33.2032   32.2646   53.2862 H   0  0  0  0  0  0  0  0  0  0  0  0
   31.3635   32.6098   55.7767 H   0  0  0  0  0  0  0  0  0  0  0  0
   32.7067   33.1480   56.8133 H   0  0  0  0  0  0  0  0  0  0  0  0
   32.9529   31.8177   55.6567 H   0  0  0  0  0  0  0  0  0  0  0  0
   33.1259   39.2199   57.7694 H   0  0  0  0  0  0  0  0  0  0  0  0
   32.4854   39.9991   60.0102 H   0  0  0  0  0  0  0  0  0  0  0  0
  1  2  1  0  0  0  0
  1 22  1  0  0  0  0
  1 23  1  0  0  0  0
  1 24  1  0  0  0  0
  2  3  2  0  0  0  0
  2  4  1  0  0  0  0
  4  5  1  0  0  0  0
  5 21  2  0  0  0  0
  5  6  1  0  0  0  0
  6  7  2  0  0  0  0
  6 25  1  0  0  0  0
  7  8  1  0  0  0  0
  7 26  1  0  0  0  0
  8  9  1  0  0  0  0
  8 20  2  0  0  0  0
  9 10  2  0  0  0  0
  9 11  1  0  0  0  0
 11 12  1  0  0  0  0
 11 27  1  0  0  0  0
 12 18  2  0  0  0  0
 12 13  1  0  0  0  0
 13 14  2  0  0  0  0
 13 28  1  0  0  0  0
 14 15  1  0  0  0  0
 14 16  1  0  0  0  0
 15 29  1  0  0  0  0
 15 30  1  0  0  0  0
 15 31  1  0  0  0  0
 16 17  2  0  0  0  0
 16 32  1  0  0  0  0
 17 18  1  0  0  0  0
 17 33  1  0  0  0  0
 18 19  1  0  0  0  0
 19 34  1  0  0  0  0
 19 35  1  0  0  0  0
 19 36  1  0  0  0  0
 20 21  1  0  0  0  0
 20 37  1  0  0  0  0
 21 38  1  0  0  0  0
M  END
$$$$
