ZINC000000002061      none
 OpenBabel11202420153D

 29 30  0  0  0  0  0  0  0  0999 V2000
   33.4947   36.1994   63.4583 O   0  0  0  0  0  0  0  0  0  0  0  0
   32.5918   36.9686   63.7250 C   0  0  0  0  0  0  0  0  0  0  0  0
   31.9725   37.6485   62.7400 N   0  0  0  0  0  0  0  0  0  0  0  0
   32.3692   37.4689   61.4083 N   0  0  0  0  0  0  0  0  0  0  0  0
   32.2493   38.4431   60.5582 C   0  0  0  0  0  0  0  0  0  0  0  0
   32.6665   38.2543   59.1577 C   0  0  0  0  0  0  0  0  0  0  0  0
   32.5870   36.9917   58.5652 C   0  0  0  0  0  0  0  0  0  0  0  0
   32.9791   36.8219   57.2542 C   0  0  0  0  0  0  0  0  0  0  0  0
   33.4516   37.8978   56.5217 C   0  0  0  0  0  0  0  0  0  0  0  0
   33.5357   39.1519   57.0966 C   0  0  0  0  0  0  0  0  0  0  0  0
   33.1401   39.3416   58.4106 C   0  0  0  0  0  0  0  0  0  0  0  0
   33.2162   40.5748   58.9743 O   0  0  0  0  0  0  0  0  0  0  0  0
   32.1727   37.1584   65.1325 C   0  0  0  0  0  0  0  0  0  0  0  0
   30.8668   37.5477   65.4472 C   0  0  0  0  0  0  0  0  0  0  0  0
   30.5186   37.7129   66.7737 C   0  0  0  0  0  0  0  0  0  0  0  0
   31.3976   37.5091   67.7347 N   0  0  0  0  0  0  0  0  0  0  0  0
   32.6381   37.1412   67.4819 C   0  0  0  0  0  0  0  0  0  0  0  0
   33.0716   36.9531   66.1841 C   0  0  0  0  0  0  0  0  0  0  0  0
   31.2522   38.2622   62.9528 H   0  0  0  0  0  0  0  0  0  0  0  0
   31.8436   39.3917   60.8777 H   0  0  0  0  0  0  0  0  0  0  0  0
   32.2186   36.1501   59.1329 H   0  0  0  0  0  0  0  0  0  0  0  0
   32.9178   35.8455   56.7967 H   0  0  0  0  0  0  0  0  0  0  0  0
   33.7567   37.7561   55.4955 H   0  0  0  0  0  0  0  0  0  0  0  0
   33.9056   39.9860   56.5190 H   0  0  0  0  0  0  0  0  0  0  0  0
   32.9218   40.6052   59.8949 H   0  0  0  0  0  0  0  0  0  0  0  0
   30.1427   37.7209   64.6648 H   0  0  0  0  0  0  0  0  0  0  0  0
   29.5126   38.0132   67.0269 H   0  0  0  0  0  0  0  0  0  0  0  0
   33.3247   36.9851   68.3007 H   0  0  0  0  0  0  0  0  0  0  0  0
   34.0893   36.6517   65.9843 H   0  0  0  0  0  0  0  0  0  0  0  0
  1  2  2  0  0  0  0
  2  3  1  0  0  0  0
  2 13  1  0  0  0  0
  3  4  1  0  0  0  0
  3 19  1  0  0  0  0
  4  5  2  0  0  0  0
  5  6  1  0  0  0  0
  5 20  1  0  0  0  0
  6 11  2  0  0  0  0
  6  7  1  0  0  0  0
  7  8  2  0  0  0  0
  7 21  1  0  0  0  0
  8  9  1  0  0  0  0
  8 22  1  0  0  0  0
  9 10  2  0  0  0  0
  9 23  1  0  0  0  0
 10 11  1  0  0  0  0
 10 24  1  0  0  0  0
 11 12  1  0  0  0  0
 12 25  1  0  0  0  0
 13 18  2  0  0  0  0
 13 14  1  0  0  0  0
 14 15  2  0  0  0  0
 14 26  1  0  0  0  0
 15 16  1  0  0  0  0
 15 27  1  0  0  0  0
 16 17  2  0  0  0  0
 17 18  1  0  0  0  0
 17 28  1  0  0  0  0
 18 29  1  0  0  0  0
M  END
$$$$
