ZINC000000005128      none
 OpenBabel11202420153D

 32 35  0  0  0  0  0  0  0  0999 V2000
   29.2704   36.4888   60.3781 C   0  0  0  0  0  0  0  0  0  0  0  0
   30.2431   36.8800   61.4607 C   0  0  0  0  0  0  0  0  0  0  0  0
   29.8313   37.6916   62.4999 C   0  0  0  0  0  0  0  0  0  0  0  0
   30.7219   38.0471   63.4959 C   0  0  0  0  0  0  0  0  0  0  0  0
   32.0300   37.6001   63.4497 C   0  0  0  0  0  0  0  0  0  0  0  0
   32.4489   36.7929   62.4106 C   0  0  0  0  0  0  0  0  0  0  0  0
   31.5554   36.4299   61.4114 C   0  0  0  0  0  0  0  0  0  0  0  0
   31.9777   35.6112   60.3554 N   0  0  0  0  0  0  0  0  0  0  0  0
   31.9458   34.2086   60.3156 N   0  0  0  0  0  0  0  0  0  0  0  0
   32.4114   33.8058   59.1853 N   0  0  0  0  0  0  0  0  0  0  0  0
   32.7777   34.8578   58.4306 C   0  0  0  0  0  0  0  0  0  0  0  0
   33.3365   34.9801   57.1427 C   0  0  0  0  0  0  0  0  0  0  0  0
   33.6055   36.1494   56.6258 N   0  0  0  0  0  0  0  0  0  0  0  0
   33.3683   37.2959   57.2810 C   0  0  0  0  0  0  0  0  0  0  0  0
   33.6699   38.5345   56.6937 C   0  0  0  0  0  0  0  0  0  0  0  0
   33.4218   39.6875   57.3760 C   0  0  0  0  0  0  0  0  0  0  0  0
   32.8704   39.6593   58.6531 C   0  0  0  0  0  0  0  0  0  0  0  0
   32.5646   38.4740   59.2540 C   0  0  0  0  0  0  0  0  0  0  0  0
   32.8075   37.2709   58.5801 C   0  0  0  0  0  0  0  0  0  0  0  0
   32.5066   36.0207   59.1651 C   0  0  0  0  0  0  0  0  0  0  0  0
   28.8389   35.5155   60.6117 H   0  0  0  0  0  0  0  0  0  0  0  0
   29.7924   36.4351   59.4228 H   0  0  0  0  0  0  0  0  0  0  0  0
   28.4763   37.2331   60.3169 H   0  0  0  0  0  0  0  0  0  0  0  0
   28.8116   38.0455   62.5366 H   0  0  0  0  0  0  0  0  0  0  0  0
   30.3964   38.6780   64.3098 H   0  0  0  0  0  0  0  0  0  0  0  0
   32.7242   37.8825   64.2272 H   0  0  0  0  0  0  0  0  0  0  0  0
   33.4706   36.4445   62.3748 H   0  0  0  0  0  0  0  0  0  0  0  0
   33.5479   34.0883   56.5712 H   0  0  0  0  0  0  0  0  0  0  0  0
   34.0983   38.5737   55.7032 H   0  0  0  0  0  0  0  0  0  0  0  0
   33.6565   40.6374   56.9188 H   0  0  0  0  0  0  0  0  0  0  0  0
   32.6821   40.5864   59.1741 H   0  0  0  0  0  0  0  0  0  0  0  0
   32.1364   38.4632   60.2454 H   0  0  0  0  0  0  0  0  0  0  0  0
  1  2  1  0  0  0  0
  1 21  1  0  0  0  0
  1 22  1  0  0  0  0
  1 23  1  0  0  0  0
  2  7  2  0  0  0  0
  2  3  1  0  0  0  0
  3  4  2  0  0  0  0
  3 24  1  0  0  0  0
  4  5  1  0  0  0  0
  4 25  1  0  0  0  0
  5  6  2  0  0  0  0
  5 26  1  0  0  0  0
  6  7  1  0  0  0  0
  6 27  1  0  0  0  0
  7  8  1  0  0  0  0
  8 20  1  0  0  0  0
  8  9  1  0  0  0  0
  9 10  2  0  0  0  0
 10 11  1  0  0  0  0
 11 20  2  0  0  0  0
 11 12  1  0  0  0  0
 12 13  2  0  0  0  0
 12 28  1  0  0  0  0
 13 14  1  0  0  0  0
 14 19  2  0  0  0  0
 14 15  1  0  0  0  0
 15 16  2  0  0  0  0
 15 29  1  0  0  0  0
 16 17  1  0  0  0  0
 16 30  1  0  0  0  0
 17 18  2  0  0  0  0
 17 31  1  0  0  0  0
 18 19  1  0  0  0  0
 18 32  1  0  0  0  0
 19 20  1  0  0  0  0
M  END
$$$$
