ZINC000000028446      none
 OpenBabel11202420163D

 32 32  0  0  0  0  0  0  0  0999 V2000
   35.0354   38.1785   54.4309 C   0  0  0  0  0  0  0  0  0  0  0  0
   34.4950   37.2145   55.3726 O   0  0  0  0  0  0  0  0  0  0  0  0
   33.6490   37.6838   56.3113 C   0  0  0  0  0  0  0  0  0  0  0  0
   33.3706   38.8667   56.3417 O   0  0  0  0  0  0  0  0  0  0  0  0
   33.0630   36.7651   57.2985 C   0  0  0  0  0  0  0  0  0  0  0  0
   32.7322   37.2269   58.5793 C   0  0  0  0  0  0  0  0  0  0  0  0
   32.1833   36.3628   59.5028 C   0  0  0  0  0  0  0  0  0  0  0  0
   31.8681   36.8121   60.7479 O   0  0  0  0  0  0  0  0  0  0  0  0
   30.5488   37.3279   60.9366 C   0  0  0  0  0  0  0  0  0  0  0  0
   31.9552   35.0277   59.1672 C   0  0  0  0  0  0  0  0  0  0  0  0
   31.4137   34.1826   60.0833 O   0  0  0  0  0  0  0  0  0  0  0  0
   32.3219   33.4766   60.9311 C   0  0  0  0  0  0  0  0  0  0  0  0
   32.2791   34.5596   57.9016 C   0  0  0  0  0  0  0  0  0  0  0  0
   32.0544   33.2562   57.5800 O   0  0  0  0  0  0  0  0  0  0  0  0
   30.7807   32.9372   57.0163 C   0  0  0  0  0  0  0  0  0  0  0  0
   32.8333   35.4219   56.9617 C   0  0  0  0  0  0  0  0  0  0  0  0
   33.1589   34.9546   55.6902 N   0  0  0  0  0  0  0  0  0  0  0  0
   35.5935   38.9423   54.9726 H   0  0  0  0  0  0  0  0  0  0  0  0
   35.6995   37.6705   53.7317 H   0  0  0  0  0  0  0  0  0  0  0  0
   34.2188   38.6467   53.8813 H   0  0  0  0  0  0  0  0  0  0  0  0
   32.9067   38.2595   58.8429 H   0  0  0  0  0  0  0  0  0  0  0  0
   29.8190   36.5499   60.7127 H   0  0  0  0  0  0  0  0  0  0  0  0
   30.4296   37.6510   61.9709 H   0  0  0  0  0  0  0  0  0  0  0  0
   30.3916   38.1763   60.2707 H   0  0  0  0  0  0  0  0  0  0  0  0
   32.9131   34.1905   61.5047 H   0  0  0  0  0  0  0  0  0  0  0  0
   31.7605   32.8385   61.6135 H   0  0  0  0  0  0  0  0  0  0  0  0
   32.9849   32.8624   60.3218 H   0  0  0  0  0  0  0  0  0  0  0  0
   29.9939   33.2046   57.7218 H   0  0  0  0  0  0  0  0  0  0  0  0
   30.6431   33.4953   56.0902 H   0  0  0  0  0  0  0  0  0  0  0  0
   30.7332   31.8686   56.8070 H   0  0  0  0  0  0  0  0  0  0  0  0
   33.6187   35.5345   55.0633 H   0  0  0  0  0  0  0  0  0  0  0  0
   32.9257   34.0491   55.4319 H   0  0  0  0  0  0  0  0  0  0  0  0
  1  2  1  0  0  0  0
  1 18  1  0  0  0  0
  1 19  1  0  0  0  0
  1 20  1  0  0  0  0
  2  3  1  0  0  0  0
  3  4  2  0  0  0  0
  3  5  1  0  0  0  0
  5 16  2  0  0  0  0
  5  6  1  0  0  0  0
  6  7  2  0  0  0  0
  6 21  1  0  0  0  0
  7  8  1  0  0  0  0
  7 10  1  0  0  0  0
  8  9  1  0  0  0  0
  9 22  1  0  0  0  0
  9 23  1  0  0  0  0
  9 24  1  0  0  0  0
 10 11  1  0  0  0  0
 10 13  2  0  0  0  0
 11 12  1  0  0  0  0
 12 25  1  0  0  0  0
 12 26  1  0  0  0  0
 12 27  1  0  0  0  0
 13 14  1  0  0  0  0
 13 16  1  0  0  0  0
 14 15  1  0  0  0  0
 15 28  1  0  0  0  0
 15 29  1  0  0  0  0
 15 30  1  0  0  0  0
 16 17  1  0  0  0  0
 17 31  1  0  0  0  0
 17 32  1  0  0  0  0
M  END
$$$$
