ZINC000000031230      none
 OpenBabel11202420163D

 17 17  0  0  0  0  0  0  0  0999 V2000
   30.8581   39.3539   63.1208 O   0  0  0  0  0  0  0  0  0  0  0  0
   30.6737   38.3232   62.5194 C   0  0  0  0  0  0  0  0  0  0  0  0
   29.8414   37.2517   63.1235 C   0  0  0  0  0  0  0  0  0  0  0  0
   30.6820   36.2404   63.9438 C   0  0  0  0  0  0  0  0  0  0  0  0
   31.9867   35.9967   63.1952 C   0  0  0  0  0  0  0  0  0  0  0  0
   33.0138   35.8749   63.8184 O   0  0  0  0  0  0  0  0  0  0  0  0
   32.0184   35.9068   61.7144 C   0  0  0  0  0  0  0  0  0  0  0  0
   32.3261   37.2163   61.2286 O   0  0  0  0  0  0  0  0  0  0  0  0
   31.2961   38.1252   61.1412 C   0  0  0  0  0  0  0  0  0  0  0  0
   29.3233   36.7164   62.3279 H   0  0  0  0  0  0  0  0  0  0  0  0
   29.1002   37.7084   63.7795 H   0  0  0  0  0  0  0  0  0  0  0  0
   30.8946   36.6525   64.9303 H   0  0  0  0  0  0  0  0  0  0  0  0
   30.1348   35.3032   64.0454 H   0  0  0  0  0  0  0  0  0  0  0  0
   32.7884   35.2021   61.4002 H   0  0  0  0  0  0  0  0  0  0  0  0
   31.0455   35.5891   61.3393 H   0  0  0  0  0  0  0  0  0  0  0  0
   31.6817   39.0773   60.7767 H   0  0  0  0  0  0  0  0  0  0  0  0
   30.5395   37.7516   60.4511 H   0  0  0  0  0  0  0  0  0  0  0  0
  1  2  2  0  0  0  0
  2  9  1  0  0  0  0
  2  3  1  0  0  0  0
  3  4  1  0  0  0  0
  3 10  1  0  0  0  0
  3 11  1  0  0  0  0
  4  5  1  0  0  0  0
  4 12  1  0  0  0  0
  4 13  1  0  0  0  0
  5  6  2  0  0  0  0
  5  7  1  0  0  0  0
  7  8  1  0  0  0  0
  7 14  1  0  0  0  0
  7 15  1  0  0  0  0
  8  9  1  0  0  0  0
  9 16  1  0  0  0  0
  9 17  1  0  0  0  0
M  END
$$$$
