ZINC000000017137      none
 OpenBabel11202420153D

 45 47  0  0  1  0  0  0  0  0999 V2000
   32.3762   37.9746   65.1185 C   0  0  0  0  0  0  0  0  0  0  0  0
   30.9853   37.6948   64.5459 C   0  0  0  0  0  0  0  0  0  0  0  0
   30.1937   39.0017   64.4677 C   0  0  0  0  0  0  0  0  0  0  0  0
   30.2498   36.7065   65.4530 C   0  0  0  0  0  0  0  0  0  0  0  0
   31.1159   37.1220   63.2039 N   0  0  0  0  0  0  0  0  0  0  0  0
   30.5735   37.7066   61.9678 C   0  0  0  0  0  0  0  0  0  0  0  0
   30.9971   36.7082   60.8732 C   0  0  1  0  0  0  0  0  0  0  0  0
   30.1222   36.2832   60.3813 H   0  0  0  0  0  0  0  0  0  0  0  0
   31.9082   37.3891   59.8497 C   0  0  0  0  0  0  0  0  0  0  0  0
   31.9125   36.6319   58.6378 O   0  0  0  0  0  0  0  0  0  0  0  0
   32.6785   37.1039   57.6178 C   0  0  0  0  0  0  0  0  0  0  0  0
   32.8933   38.4630   57.4943 C   0  0  0  0  0  0  0  0  0  0  0  0
   33.6755   38.9364   56.4563 C   0  0  0  0  0  0  0  0  0  0  0  0
   34.2279   38.0561   55.5523 C   0  0  0  0  0  0  0  0  0  0  0  0
   34.0136   36.6825   55.6596 C   0  0  0  0  0  0  0  0  0  0  0  0
   33.2429   36.2082   56.7017 C   0  0  0  0  0  0  0  0  0  0  0  0
   32.9314   34.4875   56.9377 S   0  0  0  0  0  0  0  0  0  0  0  0
   33.4716   33.7660   55.3611 C   0  0  0  0  0  0  0  0  0  0  0  0
   34.8365   34.3812   55.0211 C   0  0  0  0  0  0  0  0  0  0  0  0
   34.6374   35.8252   54.5949 C   0  0  0  0  0  0  0  0  0  0  0  0
   31.7261   35.6767   61.5995 O   0  0  0  0  0  0  0  0  0  0  0  0
   31.7494   35.9803   62.9021 C   0  0  0  0  0  0  0  0  0  0  0  0
   32.2956   35.2848   63.7354 O   0  0  0  0  0  0  0  0  0  0  0  0
   32.9004   38.6789   64.4722 H   0  0  0  0  0  0  0  0  0  0  0  0
   32.2791   38.4008   66.1170 H   0  0  0  0  0  0  0  0  0  0  0  0
   32.9403   37.0436   65.1742 H   0  0  0  0  0  0  0  0  0  0  0  0
   29.2027   38.8024   64.0598 H   0  0  0  0  0  0  0  0  0  0  0  0
   30.0966   39.4279   65.4662 H   0  0  0  0  0  0  0  0  0  0  0  0
   30.7177   39.7059   63.8215 H   0  0  0  0  0  0  0  0  0  0  0  0
   30.8138   35.7753   65.5087 H   0  0  0  0  0  0  0  0  0  0  0  0
   30.1526   37.1326   66.4515 H   0  0  0  0  0  0  0  0  0  0  0  0
   29.2589   36.5071   65.0450 H   0  0  0  0  0  0  0  0  0  0  0  0
   31.0130   38.6868   61.7829 H   0  0  0  0  0  0  0  0  0  0  0  0
   29.4872   37.7769   62.0222 H   0  0  0  0  0  0  0  0  0  0  0  0
   32.9218   37.4455   60.2466 H   0  0  0  0  0  0  0  0  0  0  0  0
   31.5402   38.3952   59.6483 H   0  0  0  0  0  0  0  0  0  0  0  0
   32.4538   39.1502   58.2021 H   0  0  0  0  0  0  0  0  0  0  0  0
   33.8534   39.9967   56.3548 H   0  0  0  0  0  0  0  0  0  0  0  0
   34.8382   38.4365   54.7464 H   0  0  0  0  0  0  0  0  0  0  0  0
   32.7519   34.0049   54.5780 H   0  0  0  0  0  0  0  0  0  0  0  0
   33.5664   32.6847   55.4599 H   0  0  0  0  0  0  0  0  0  0  0  0
   35.4815   34.3455   55.8990 H   0  0  0  0  0  0  0  0  0  0  0  0
   35.2967   33.8207   54.2074 H   0  0  0  0  0  0  0  0  0  0  0  0
   35.6063   36.2466   54.3272 H   0  0  0  0  0  0  0  0  0  0  0  0
   33.9968   35.8434   53.7131 H   0  0  0  0  0  0  0  0  0  0  0  0
  1  2  1  0  0  0  0
  1 24  1  0  0  0  0
  1 25  1  0  0  0  0
  1 26  1  0  0  0  0
  2  3  1  0  0  0  0
  2  4  1  0  0  0  0
  2  5  1  0  0  0  0
  3 27  1  0  0  0  0
  3 28  1  0  0  0  0
  3 29  1  0  0  0  0
  4 30  1  0  0  0  0
  4 31  1  0  0  0  0
  4 32  1  0  0  0  0
  5 22  1  0  0  0  0
  5  6  1  0  0  0  0
  6  7  1  0  0  0  0
  6 33  1  0  0  0  0
  6 34  1  0  0  0  0
  7  8  1  6  0  0  0
  7  9  1  0  0  0  0
  7 21  1  0  0  0  0
  9 10  1  0  0  0  0
  9 35  1  0  0  0  0
  9 36  1  0  0  0  0
 10 11  1  0  0  0  0
 11 16  2  0  0  0  0
 11 12  1  0  0  0  0
 12 13  2  0  0  0  0
 12 37  1  0  0  0  0
 13 14  1  0  0  0  0
 13 38  1  0  0  0  0
 14 15  2  0  0  0  0
 14 39  1  0  0  0  0
 15 20  1  0  0  0  0
 15 16  1  0  0  0  0
 16 17  1  0  0  0  0
 17 18  1  0  0  0  0
 18 19  1  0  0  0  0
 18 40  1  0  0  0  0
 18 41  1  0  0  0  0
 19 20  1  0  0  0  0
 19 42  1  0  0  0  0
 19 43  1  0  0  0  0
 20 44  1  0  0  0  0
 20 45  1  0  0  0  0
 21 22  1  0  0  0  0
 22 23  2  0  0  0  0
M  END
$$$$
