ZINC000000032420      none
 OpenBabel11202420153D

 36 37  0  0  1  0  0  0  0  0999 V2000
   34.5602   36.0245   53.5419 C   0  0  0  0  0  0  0  0  0  0  0  0
   34.0474   36.3991   54.9086 C   0  0  0  0  0  0  0  0  0  0  0  0
   34.1774   37.5343   55.3149 O   0  0  0  0  0  0  0  0  0  0  0  0
   33.4443   35.4724   55.6794 N   0  0  0  0  0  0  0  0  0  0  0  0
   32.9714   35.8179   56.9400 C   0  0  0  0  0  0  0  0  0  0  0  0
   32.3786   35.0063   57.7587 N   0  0  0  0  0  0  0  0  0  0  0  0
   31.9985   35.5024   58.9213 C   0  0  0  0  0  0  0  0  0  0  0  0
   32.2742   36.7973   59.0887 C   0  0  0  0  0  0  0  0  0  0  0  0
   31.9516   37.6203   60.3093 C   0  0  0  0  0  0  0  0  0  0  0  0
   31.2782   36.7759   61.3052 N   0  0  0  0  0  0  0  0  0  0  0  0
   32.2368   35.8913   61.9797 C   0  0  0  0  0  0  0  0  0  0  0  0
   31.4839   34.9292   62.9011 C   0  0  0  0  0  0  0  0  0  0  0  0
   30.6903   35.7346   63.9337 C   0  0  2  0  0  0  0  0  0  0  0  0
   29.8875   34.7811   64.8208 C   0  0  0  0  0  0  0  0  0  0  0  0
   29.7341   36.6825   63.2045 C   0  0  0  0  0  0  0  0  0  0  0  0
   30.5378   37.5940   62.2741 C   0  0  0  0  0  0  0  0  0  0  0  0
   33.0876   37.3748   57.6366 S   0  0  0  0  0  0  0  0  0  0  0  0
   33.7753   36.1848   52.8029 H   0  0  0  0  0  0  0  0  0  0  0  0
   35.4232   36.6431   53.2955 H   0  0  0  0  0  0  0  0  0  0  0  0
   34.8531   34.9745   53.5389 H   0  0  0  0  0  0  0  0  0  0  0  0
   33.3402   34.5643   55.3543 H   0  0  0  0  0  0  0  0  0  0  0  0
   31.5018   34.9091   59.6748 H   0  0  0  0  0  0  0  0  0  0  0  0
   31.2960   38.4445   60.0288 H   0  0  0  0  0  0  0  0  0  0  0  0
   32.8736   38.0175   60.7337 H   0  0  0  0  0  0  0  0  0  0  0  0
   32.7916   35.3212   61.2344 H   0  0  0  0  0  0  0  0  0  0  0  0
   32.9310   36.4903   62.5692 H   0  0  0  0  0  0  0  0  0  0  0  0
   32.1968   34.2830   63.4134 H   0  0  0  0  0  0  0  0  0  0  0  0
   30.7995   34.3197   62.3109 H   0  0  0  0  0  0  0  0  0  0  0  0
   31.3778   36.3140   64.5501 H   0  0  0  0  0  0  0  0  0  0  0  0
   29.2021   34.2006   64.2031 H   0  0  0  0  0  0  0  0  0  0  0  0
   30.5691   34.1068   65.3395 H   0  0  0  0  0  0  0  0  0  0  0  0
   29.3195   35.3565   65.5518 H   0  0  0  0  0  0  0  0  0  0  0  0
   29.1968   37.2892   63.9334 H   0  0  0  0  0  0  0  0  0  0  0  0
   29.0221   36.1012   62.6185 H   0  0  0  0  0  0  0  0  0  0  0  0
   31.2399   38.1848   62.8623 H   0  0  0  0  0  0  0  0  0  0  0  0
   29.8582   38.2602   61.7427 H   0  0  0  0  0  0  0  0  0  0  0  0
  1  2  1  0  0  0  0
  1 18  1  0  0  0  0
  1 19  1  0  0  0  0
  1 20  1  0  0  0  0
  2  3  2  0  0  0  0
  2  4  1  0  0  0  0
  4  5  1  0  0  0  0
  4 21  1  0  0  0  0
  5 17  1  0  0  0  0
  5  6  2  0  0  0  0
  6  7  1  0  0  0  0
  7  8  2  0  0  0  0
  7 22  1  0  0  0  0
  8  9  1  0  0  0  0
  8 17  1  0  0  0  0
  9 10  1  0  0  0  0
  9 23  1  0  0  0  0
  9 24  1  0  0  0  0
 10 16  1  0  0  0  0
 10 11  1  0  0  0  0
 11 12  1  0  0  0  0
 11 25  1  0  0  0  0
 11 26  1  0  0  0  0
 12 13  1  0  0  0  0
 12 27  1  0  0  0  0
 12 28  1  0  0  0  0
 13 14  1  0  0  0  0
 13 15  1  0  0  0  0
 13 29  1  1  0  0  0
 14 30  1  0  0  0  0
 14 31  1  0  0  0  0
 14 32  1  0  0  0  0
 15 16  1  0  0  0  0
 15 33  1  0  0  0  0
 15 34  1  0  0  0  0
 16 35  1  0  0  0  0
 16 36  1  0  0  0  0
M  END
$$$$
