ZINC000000026103      none
 OpenBabel11202420153D

 35 37  0  0  1  0  0  0  0  0999 V2000
   31.2151   36.5297   68.6527 O   0  0  0  0  0  0  0  0  0  0  0  0
   31.1597   35.8431   67.4006 C   0  0  1  0  0  0  0  0  0  0  0  0
   32.0957   35.3102   67.2334 H   0  0  0  0  0  0  0  0  0  0  0  0
   29.9933   34.8474   67.4048 C   0  0  2  0  0  0  0  0  0  0  0  0
   30.1053   34.1609   68.2440 H   0  0  0  0  0  0  0  0  0  0  0  0
   29.9949   34.1078   66.1821 O   0  0  0  0  0  0  0  0  0  0  0  0
   28.6706   35.6039   67.5404 C   0  0  2  0  0  0  0  0  0  0  0  0
   28.6418   36.1123   68.5041 H   0  0  0  0  0  0  0  0  0  0  0  0
   27.5846   34.6786   67.4597 O   0  0  0  0  0  0  0  0  0  0  0  0
   28.5512   36.5693   66.4903 O   0  0  0  0  0  0  0  0  0  0  0  0
   29.5872   37.5490   66.5032 C   0  0  2  0  0  0  0  0  0  0  0  0
   29.6001   38.0504   67.4709 H   0  0  0  0  0  0  0  0  0  0  0  0
   29.3842   38.5842   65.3961 C   0  0  0  0  0  0  0  0  0  0  0  0
   30.5102   39.4708   65.3964 O   0  0  0  0  0  0  0  0  0  0  0  0
   31.7713   38.8223   65.2263 C   0  0  2  0  0  0  0  0  0  0  0  0
   32.5691   39.5627   65.2839 H   0  0  0  0  0  0  0  0  0  0  0  0
   31.8109   38.1527   63.8768 C   0  0  0  0  0  0  0  0  0  0  0  0
   32.5700   37.0121   63.6931 C   0  0  0  0  0  0  0  0  0  0  0  0
   32.6028   36.3954   62.4564 C   0  0  0  0  0  0  0  0  0  0  0  0
   31.8838   36.9247   61.4008 C   0  0  0  0  0  0  0  0  0  0  0  0
   31.1291   38.0682   61.5831 C   0  0  0  0  0  0  0  0  0  0  0  0
   31.0928   38.6824   62.8210 C   0  0  0  0  0  0  0  0  0  0  0  0
   31.9613   37.8390   66.2499 O   0  0  0  0  0  0  0  0  0  0  0  0
   30.9328   36.8494   66.2725 C   0  0  1  0  0  0  0  0  0  0  0  0
   30.9112   36.3259   65.3167 H   0  0  0  0  0  0  0  0  0  0  0  0
   31.9234   37.1856   68.7107 H   0  0  0  0  0  0  0  0  0  0  0  0
   30.8035   33.5997   66.0308 H   0  0  0  0  0  0  0  0  0  0  0  0
   27.5963   33.9977   68.1461 H   0  0  0  0  0  0  0  0  0  0  0  0
   29.3128   38.0814   64.4316 H   0  0  0  0  0  0  0  0  0  0  0  0
   28.4714   39.1495   65.5846 H   0  0  0  0  0  0  0  0  0  0  0  0
   33.1347   36.6008   64.5167 H   0  0  0  0  0  0  0  0  0  0  0  0
   33.1924   35.5019   62.3139 H   0  0  0  0  0  0  0  0  0  0  0  0
   31.9117   36.4445   60.4339 H   0  0  0  0  0  0  0  0  0  0  0  0
   30.5673   38.4817   60.7586 H   0  0  0  0  0  0  0  0  0  0  0  0
   30.5030   39.5759   62.9636 H   0  0  0  0  0  0  0  0  0  0  0  0
  1  2  1  0  0  0  0
  1 26  1  0  0  0  0
  2  3  1  6  0  0  0
  2 24  1  0  0  0  0
  2  4  1  0  0  0  0
  4  5  1  1  0  0  0
  4  6  1  0  0  0  0
  4  7  1  0  0  0  0
  6 27  1  0  0  0  0
  7  8  1  1  0  0  0
  7  9  1  0  0  0  0
  7 10  1  0  0  0  0
  9 28  1  0  0  0  0
 10 11  1  0  0  0  0
 11 12  1  1  0  0  0
 11 24  1  0  0  0  0
 11 13  1  0  0  0  0
 13 14  1  0  0  0  0
 13 29  1  0  0  0  0
 13 30  1  0  0  0  0
 14 15  1  0  0  0  0
 15 16  1  1  0  0  0
 15 17  1  0  0  0  0
 15 23  1  0  0  0  0
 17 22  2  0  0  0  0
 17 18  1  0  0  0  0
 18 19  2  0  0  0  0
 18 31  1  0  0  0  0
 19 20  1  0  0  0  0
 19 32  1  0  0  0  0
 20 21  2  0  0  0  0
 20 33  1  0  0  0  0
 21 22  1  0  0  0  0
 21 34  1  0  0  0  0
 22 35  1  0  0  0  0
 23 24  1  0  0  0  0
 24 25  1  6  0  0  0
M  END
$$$$
