ZINC000000038352      none
 OpenBabel11202420153D

 40 43  0  0  1  0  0  0  0  0999 V2000
   34.7101   36.9586   53.1249 C   0  0  0  0  0  0  0  0  0  0  0  0
   34.2386   35.9268   53.9161 C   0  0  0  0  0  0  0  0  0  0  0  0
   33.8012   36.1825   55.1998 C   0  0  0  0  0  0  0  0  0  0  0  0
   33.8351   37.4837   55.6985 C   0  0  0  0  0  0  0  0  0  0  0  0
   33.3661   37.7649   57.0771 C   0  0  0  0  0  0  0  0  0  0  0  0
   33.3792   39.0016   57.6030 C   0  0  0  0  0  0  0  0  0  0  0  0
   32.7488   38.9112   59.2457 S   0  0  0  0  0  0  0  0  0  0  0  0
   32.5209   37.1744   59.0660 C   0  0  0  0  0  0  0  0  0  0  0  0
   32.0126   36.3292   60.0388 N   0  0  0  0  0  0  0  0  0  0  0  0
   30.5440   36.2070   59.9199 C   0  0  0  0  0  0  0  0  0  0  0  0
   30.0412   36.0451   61.3761 C   0  0  0  0  0  0  0  0  0  0  0  0
   30.9995   36.9918   62.1456 C   0  0  1  0  0  0  0  0  0  0  0  0
   30.6525   38.0236   62.0908 H   0  0  0  0  0  0  0  0  0  0  0  0
   31.1414   36.5548   63.5808 C   0  0  0  0  0  0  0  0  0  0  0  0
   32.3202   36.7928   64.2624 C   0  0  0  0  0  0  0  0  0  0  0  0
   32.4485   36.3966   65.5806 C   0  0  0  0  0  0  0  0  0  0  0  0
   31.4019   35.7523   66.2137 C   0  0  0  0  0  0  0  0  0  0  0  0
   30.2250   35.5098   65.5304 C   0  0  0  0  0  0  0  0  0  0  0  0
   30.0948   35.9110   64.2139 C   0  0  0  0  0  0  0  0  0  0  0  0
   32.3346   36.8243   61.3898 C   0  0  0  0  0  0  0  0  0  0  0  0
   32.9024   36.8091   57.8814 N   0  0  0  0  0  0  0  0  0  0  0  0
   34.3061   38.5206   54.8946 C   0  0  0  0  0  0  0  0  0  0  0  0
   34.7466   38.2521   53.6146 C   0  0  0  0  0  0  0  0  0  0  0  0
   35.0517   36.7538   52.1210 H   0  0  0  0  0  0  0  0  0  0  0  0
   34.2127   34.9190   53.5286 H   0  0  0  0  0  0  0  0  0  0  0  0
   33.4332   35.3760   55.8167 H   0  0  0  0  0  0  0  0  0  0  0  0
   33.7180   39.8975   57.1040 H   0  0  0  0  0  0  0  0  0  0  0  0
   30.1235   37.1070   59.4711 H   0  0  0  0  0  0  0  0  0  0  0  0
   30.2828   35.3294   59.3286 H   0  0  0  0  0  0  0  0  0  0  0  0
   30.1536   35.0155   61.7158 H   0  0  0  0  0  0  0  0  0  0  0  0
   29.0067   36.3749   61.4716 H   0  0  0  0  0  0  0  0  0  0  0  0
   33.1396   37.2918   63.7665 H   0  0  0  0  0  0  0  0  0  0  0  0
   33.3680   36.5864   66.1145 H   0  0  0  0  0  0  0  0  0  0  0  0
   31.5037   35.4390   67.2422 H   0  0  0  0  0  0  0  0  0  0  0  0
   29.4074   35.0065   66.0250 H   0  0  0  0  0  0  0  0  0  0  0  0
   29.1753   35.7212   63.6801 H   0  0  0  0  0  0  0  0  0  0  0  0
   32.9663   36.1032   61.9083 H   0  0  0  0  0  0  0  0  0  0  0  0
   32.8471   37.7839   61.3207 H   0  0  0  0  0  0  0  0  0  0  0  0
   34.3306   39.5314   55.2745 H   0  0  0  0  0  0  0  0  0  0  0  0
   35.1158   39.0538   52.9924 H   0  0  0  0  0  0  0  0  0  0  0  0
  1 23  2  0  0  0  0
  1  2  1  0  0  0  0
  1 24  1  0  0  0  0
  2  3  2  0  0  0  0
  2 25  1  0  0  0  0
  3  4  1  0  0  0  0
  3 26  1  0  0  0  0
  4  5  1  0  0  0  0
  4 22  2  0  0  0  0
  5 21  1  0  0  0  0
  5  6  2  0  0  0  0
  6  7  1  0  0  0  0
  6 27  1  0  0  0  0
  7  8  1  0  0  0  0
  8  9  1  0  0  0  0
  8 21  2  0  0  0  0
  9 20  1  0  0  0  0
  9 10  1  0  0  0  0
 10 11  1  0  0  0  0
 10 28  1  0  0  0  0
 10 29  1  0  0  0  0
 11 12  1  0  0  0  0
 11 30  1  0  0  0  0
 11 31  1  0  0  0  0
 12 13  1  6  0  0  0
 12 14  1  0  0  0  0
 12 20  1  0  0  0  0
 14 19  2  0  0  0  0
 14 15  1  0  0  0  0
 15 16  2  0  0  0  0
 15 32  1  0  0  0  0
 16 17  1  0  0  0  0
 16 33  1  0  0  0  0
 17 18  2  0  0  0  0
 17 34  1  0  0  0  0
 18 19  1  0  0  0  0
 18 35  1  0  0  0  0
 19 36  1  0  0  0  0
 20 37  1  0  0  0  0
 20 38  1  0  0  0  0
 22 23  1  0  0  0  0
 22 39  1  0  0  0  0
 23 40  1  0  0  0  0
M  END
$$$$
