ZINC000000038785      none
 OpenBabel11202420153D

 37 38  0  0  0  0  0  0  0  0999 V2000
   29.5061   38.3785   64.1500 C   0  0  0  0  0  0  0  0  0  0  0  0
   30.8708   38.3055   64.7850 C   0  0  0  0  0  0  0  0  0  0  0  0
   31.7303   37.2617   64.4676 C   0  0  0  0  0  0  0  0  0  0  0  0
   31.3307   36.2763   63.5580 N   0  0  0  0  0  0  0  0  0  0  0  0
   32.2491   35.6514   62.7949 C   0  0  0  0  0  0  0  0  0  0  0  0
   33.4221   35.9431   62.8966 O   0  0  0  0  0  0  0  0  0  0  0  0
   31.8189   34.5905   61.8150 C   0  0  0  0  0  0  0  0  0  0  0  0
   30.8465   35.1967   60.8011 C   0  0  0  0  0  0  0  0  0  0  0  0
   31.5280   36.3181   60.0600 C   0  0  0  0  0  0  0  0  0  0  0  0
   31.4570   37.6106   60.5451 C   0  0  0  0  0  0  0  0  0  0  0  0
   32.0861   38.6385   59.8678 C   0  0  0  0  0  0  0  0  0  0  0  0
   32.7775   38.3755   58.7000 C   0  0  0  0  0  0  0  0  0  0  0  0
   32.8441   37.0837   58.2123 C   0  0  0  0  0  0  0  0  0  0  0  0
   32.2193   36.0551   58.8923 C   0  0  0  0  0  0  0  0  0  0  0  0
   32.9890   37.2011   65.0506 C   0  0  0  0  0  0  0  0  0  0  0  0
   33.3807   38.1755   65.9479 C   0  0  0  0  0  0  0  0  0  0  0  0
   32.5205   39.2102   66.2660 C   0  0  0  0  0  0  0  0  0  0  0  0
   31.2660   39.2734   65.6872 C   0  0  0  0  0  0  0  0  0  0  0  0
   30.3482   40.3825   66.0310 N   0  0  0  0  0  0  0  0  0  0  0  0
   29.2448   40.4410   65.5181 O   0  0  0  0  0  0  0  0  0  0  0  0
   30.6960   41.2366   66.8265 O   0  0  0  0  0  0  0  0  0  0  0  0
   28.7665   37.9524   64.8279 H   0  0  0  0  0  0  0  0  0  0  0  0
   29.2552   39.4195   63.9466 H   0  0  0  0  0  0  0  0  0  0  0  0
   29.5093   37.8165   63.2162 H   0  0  0  0  0  0  0  0  0  0  0  0
   30.3927   36.0431   63.4765 H   0  0  0  0  0  0  0  0  0  0  0  0
   32.6932   34.2022   61.2926 H   0  0  0  0  0  0  0  0  0  0  0  0
   31.3260   33.7793   62.3510 H   0  0  0  0  0  0  0  0  0  0  0  0
   30.5352   34.4292   60.0924 H   0  0  0  0  0  0  0  0  0  0  0  0
   29.9721   35.5850   61.3235 H   0  0  0  0  0  0  0  0  0  0  0  0
   30.9130   37.8168   61.4551 H   0  0  0  0  0  0  0  0  0  0  0  0
   32.0338   39.6478   60.2488 H   0  0  0  0  0  0  0  0  0  0  0  0
   33.2653   39.1793   58.1686 H   0  0  0  0  0  0  0  0  0  0  0  0
   33.3839   36.8784   57.2996 H   0  0  0  0  0  0  0  0  0  0  0  0
   32.2711   35.0460   58.5109 H   0  0  0  0  0  0  0  0  0  0  0  0
   33.6610   36.3927   64.8030 H   0  0  0  0  0  0  0  0  0  0  0  0
   34.3596   38.1289   66.4015 H   0  0  0  0  0  0  0  0  0  0  0  0
   32.8289   39.9709   66.9678 H   0  0  0  0  0  0  0  0  0  0  0  0
  1  2  1  0  0  0  0
  1 22  1  0  0  0  0
  1 23  1  0  0  0  0
  1 24  1  0  0  0  0
  2 18  2  0  0  0  0
  2  3  1  0  0  0  0
  3  4  1  0  0  0  0
  3 15  2  0  0  0  0
  4  5  1  0  0  0  0
  4 25  1  0  0  0  0
  5  6  2  0  0  0  0
  5  7  1  0  0  0  0
  7  8  1  0  0  0  0
  7 26  1  0  0  0  0
  7 27  1  0  0  0  0
  8  9  1  0  0  0  0
  8 28  1  0  0  0  0
  8 29  1  0  0  0  0
  9 14  2  0  0  0  0
  9 10  1  0  0  0  0
 10 11  2  0  0  0  0
 10 30  1  0  0  0  0
 11 12  1  0  0  0  0
 11 31  1  0  0  0  0
 12 13  2  0  0  0  0
 12 32  1  0  0  0  0
 13 14  1  0  0  0  0
 13 33  1  0  0  0  0
 14 34  1  0  0  0  0
 15 16  1  0  0  0  0
 15 35  1  0  0  0  0
 16 17  2  0  0  0  0
 16 36  1  0  0  0  0
 17 18  1  0  0  0  0
 17 37  1  0  0  0  0
 18 19  1  0  0  0  0
 19 20  2  0  0  0  0
 19 21  2  0  0  0  0
M  END
$$$$
