ZINC000000030499      none
 OpenBabel11202420163D

 26 27  0  0  0  0  0  0  0  0999 V2000
   30.4579   37.8469   59.7860 O   0  0  0  0  0  0  0  0  0  0  0  0
   31.2143   38.3504   60.5894 C   0  0  0  0  0  0  0  0  0  0  0  0
   30.7748   38.5471   62.0173 C   0  0  0  0  0  0  0  0  0  0  0  0
   30.4333   37.2116   62.6263 C   0  0  0  0  0  0  0  0  0  0  0  0
   29.2287   36.6396   62.5991 C   0  0  0  0  0  0  0  0  0  0  0  0
   29.1536   35.4075   63.2256 C   0  0  0  0  0  0  0  0  0  0  0  0
   30.2975   34.9791   63.7617 C   0  0  0  0  0  0  0  0  0  0  0  0
   31.5640   36.1653   63.4751 S   0  0  0  0  0  0  0  0  0  0  0  0
   32.4478   38.7340   60.2049 N   0  0  0  0  0  0  0  0  0  0  0  0
   32.8562   38.5512   58.8779 C   0  0  0  0  0  0  0  0  0  0  0  0
   33.2235   39.6450   58.1062 C   0  0  0  0  0  0  0  0  0  0  0  0
   33.6255   39.4619   56.7973 C   0  0  0  0  0  0  0  0  0  0  0  0
   33.6626   38.1906   56.2543 C   0  0  0  0  0  0  0  0  0  0  0  0
   33.2977   37.0979   57.0189 C   0  0  0  0  0  0  0  0  0  0  0  0
   32.8942   37.2738   58.3300 C   0  0  0  0  0  0  0  0  0  0  0  0
   32.5379   36.2062   59.0774 F   0  0  0  0  0  0  0  0  0  0  0  0
   31.5819   39.0098   62.5854 H   0  0  0  0  0  0  0  0  0  0  0  0
   29.8968   39.1927   62.0417 H   0  0  0  0  0  0  0  0  0  0  0  0
   28.3762   37.1026   62.1244 H   0  0  0  0  0  0  0  0  0  0  0  0
   28.2385   34.8363   63.2763 H   0  0  0  0  0  0  0  0  0  0  0  0
   30.4271   34.0444   64.2870 H   0  0  0  0  0  0  0  0  0  0  0  0
   33.0527   39.1366   60.8475 H   0  0  0  0  0  0  0  0  0  0  0  0
   33.1955   40.6385   58.5289 H   0  0  0  0  0  0  0  0  0  0  0  0
   33.9156   40.3125   56.1984 H   0  0  0  0  0  0  0  0  0  0  0  0
   33.9771   38.0511   55.2306 H   0  0  0  0  0  0  0  0  0  0  0  0
   33.3281   36.1063   56.5920 H   0  0  0  0  0  0  0  0  0  0  0  0
  1  2  2  0  0  0  0
  2  3  1  0  0  0  0
  2  9  1  0  0  0  0
  3  4  1  0  0  0  0
  3 17  1  0  0  0  0
  3 18  1  0  0  0  0
  4  8  1  0  0  0  0
  4  5  2  0  0  0  0
  5  6  1  0  0  0  0
  5 19  1  0  0  0  0
  6  7  2  0  0  0  0
  6 20  1  0  0  0  0
  7  8  1  0  0  0  0
  7 21  1  0  0  0  0
  9 10  1  0  0  0  0
  9 22  1  0  0  0  0
 10 15  2  0  0  0  0
 10 11  1  0  0  0  0
 11 12  2  0  0  0  0
 11 23  1  0  0  0  0
 12 13  1  0  0  0  0
 12 24  1  0  0  0  0
 13 14  2  0  0  0  0
 13 25  1  0  0  0  0
 14 15  1  0  0  0  0
 14 26  1  0  0  0  0
 15 16  1  0  0  0  0
M  END
$$$$
