ZINC000000041670      none
 OpenBabel11202420153D

 32 33  0  0  0  0  0  0  0  0999 V2000
   36.0365   39.8357   51.1861 N   0  0  0  0  0  0  0  0  0  0  0  0
   35.5651   39.2794   52.0573 C   0  0  0  0  0  0  0  0  0  0  0  0
   34.9710   38.5782   53.1554 C   0  0  0  0  0  0  0  0  0  0  0  0
   34.6984   39.2522   54.3500 C   0  0  0  0  0  0  0  0  0  0  0  0
   34.1320   38.5835   55.3975 C   0  0  0  0  0  0  0  0  0  0  0  0
   33.8244   37.2244   55.2755 C   0  0  0  0  0  0  0  0  0  0  0  0
   33.2141   36.5029   56.4053 C   0  0  0  0  0  0  0  0  0  0  0  0
   32.9616   37.1286   57.5150 N   0  0  0  0  0  0  0  0  0  0  0  0
   32.3812   36.4424   58.5896 N   0  0  0  0  0  0  0  0  0  0  0  0
   32.1191   37.0917   59.7412 C   0  0  0  0  0  0  0  0  0  0  0  0
   32.4957   38.7551   59.8907 S   0  0  0  0  0  0  0  0  0  0  0  0
   31.5606   36.4316   60.7749 N   0  0  0  0  0  0  0  0  0  0  0  0
   31.2881   37.1067   61.9721 C   0  0  0  0  0  0  0  0  0  0  0  0
   30.0619   37.7308   62.1546 C   0  0  0  0  0  0  0  0  0  0  0  0
   29.7928   38.3909   63.3380 C   0  0  0  0  0  0  0  0  0  0  0  0
   30.7493   38.4409   64.3381 C   0  0  0  0  0  0  0  0  0  0  0  0
   30.4851   39.0917   65.4921 F   0  0  0  0  0  0  0  0  0  0  0  0
   31.9758   37.8245   64.1575 C   0  0  0  0  0  0  0  0  0  0  0  0
   32.2480   37.1573   62.9769 C   0  0  0  0  0  0  0  0  0  0  0  0
   33.4447   36.5562   62.8001 F   0  0  0  0  0  0  0  0  0  0  0  0
   34.0968   36.5505   54.0803 C   0  0  0  0  0  0  0  0  0  0  0  0
   34.6640   37.2194   53.0332 C   0  0  0  0  0  0  0  0  0  0  0  0
   34.9359   40.3015   54.4442 H   0  0  0  0  0  0  0  0  0  0  0  0
   33.9259   39.1029   56.3218 H   0  0  0  0  0  0  0  0  0  0  0  0
   32.9767   35.4536   56.3110 H   0  0  0  0  0  0  0  0  0  0  0  0
   32.1679   35.4999   58.5049 H   0  0  0  0  0  0  0  0  0  0  0  0
   31.3472   35.4892   60.6902 H   0  0  0  0  0  0  0  0  0  0  0  0
   29.3169   37.6966   61.3735 H   0  0  0  0  0  0  0  0  0  0  0  0
   28.8371   38.8730   63.4813 H   0  0  0  0  0  0  0  0  0  0  0  0
   32.7204   37.8643   64.9390 H   0  0  0  0  0  0  0  0  0  0  0  0
   33.8591   35.5012   53.9856 H   0  0  0  0  0  0  0  0  0  0  0  0
   34.8749   36.6989   52.1107 H   0  0  0  0  0  0  0  0  0  0  0  0
  1  2  3  0  0  0  0
  2  3  1  0  0  0  0
  3 22  2  0  0  0  0
  3  4  1  0  0  0  0
  4  5  2  0  0  0  0
  4 23  1  0  0  0  0
  5  6  1  0  0  0  0
  5 24  1  0  0  0  0
  6  7  1  0  0  0  0
  6 21  2  0  0  0  0
  7  8  2  0  0  0  0
  7 25  1  0  0  0  0
  8  9  1  0  0  0  0
  9 10  1  0  0  0  0
  9 26  1  0  0  0  0
 10 11  2  0  0  0  0
 10 12  1  0  0  0  0
 12 13  1  0  0  0  0
 12 27  1  0  0  0  0
 13 19  2  0  0  0  0
 13 14  1  0  0  0  0
 14 15  2  0  0  0  0
 14 28  1  0  0  0  0
 15 16  1  0  0  0  0
 15 29  1  0  0  0  0
 16 17  1  0  0  0  0
 16 18  2  0  0  0  0
 18 19  1  0  0  0  0
 18 30  1  0  0  0  0
 19 20  1  0  0  0  0
 21 22  1  0  0  0  0
 21 31  1  0  0  0  0
 22 32  1  0  0  0  0
M  END
$$$$
