ZINC000000010363      none
 OpenBabel11202420153D

 27 29  0  0  0  0  0  0  0  0999 V2000
   32.4341   38.0476   58.4290 O   0  0  0  0  0  0  0  0  0  0  0  0
   32.6518   36.8612   58.2724 C   0  0  0  0  0  0  0  0  0  0  0  0
   32.3394   35.9843   59.2471 N   0  0  0  0  0  0  0  0  0  0  0  0
   31.7599   36.4377   60.4357 C   0  0  0  0  0  0  0  0  0  0  0  0
   31.4681   37.7035   60.7383 N   0  0  0  0  0  0  0  0  0  0  0  0
   30.9413   37.7629   61.9096 N   0  0  0  0  0  0  0  0  0  0  0  0
   30.8751   36.5788   62.4154 N   0  0  0  0  0  0  0  0  0  0  0  0
   30.5236   36.3434   63.2884 H   0  0  0  0  0  0  0  0  0  0  0  0
   31.4077   35.6938   61.4636 N   0  0  0  0  0  0  0  0  0  0  0  0
   33.2566   36.3829   57.0179 C   0  0  0  0  0  0  0  0  0  0  0  0
   33.5388   35.1407   56.7436 N   0  0  0  0  0  0  0  0  0  0  0  0
   34.0737   34.9181   55.5636 C   0  0  0  0  0  0  0  0  0  0  0  0
   34.4465   33.5578   55.1024 C   0  0  0  0  0  0  0  0  0  0  0  0
   34.4035   33.2431   53.7458 C   0  0  0  0  0  0  0  0  0  0  0  0
   34.7570   31.9782   53.3218 C   0  0  0  0  0  0  0  0  0  0  0  0
   35.1431   31.0203   54.2420 C   0  0  0  0  0  0  0  0  0  0  0  0
   35.1818   31.3253   55.5906 C   0  0  0  0  0  0  0  0  0  0  0  0
   34.8359   32.5888   56.0251 C   0  0  0  0  0  0  0  0  0  0  0  0
   34.2660   36.0289   54.7965 C   0  0  0  0  0  0  0  0  0  0  0  0
   33.7180   37.4011   55.6584 S   0  0  0  0  0  0  0  0  0  0  0  0
   32.5130   35.0382   59.1222 H   0  0  0  0  0  0  0  0  0  0  0  0
   34.0979   33.9890   53.0268 H   0  0  0  0  0  0  0  0  0  0  0  0
   34.7282   31.7345   52.2699 H   0  0  0  0  0  0  0  0  0  0  0  0
   35.4149   30.0304   53.9063 H   0  0  0  0  0  0  0  0  0  0  0  0
   35.4836   30.5736   56.3048 H   0  0  0  0  0  0  0  0  0  0  0  0
   34.8671   32.8262   57.0782 H   0  0  0  0  0  0  0  0  0  0  0  0
   34.6943   36.0405   53.8053 H   0  0  0  0  0  0  0  0  0  0  0  0
  1  2  2  0  0  0  0
  2  3  1  0  0  0  0
  2 10  1  0  0  0  0
  3  4  1  0  0  0  0
  3 21  1  0  0  0  0
  4  9  2  0  0  0  0
  4  5  1  0  0  0  0
  5  6  2  0  0  0  0
  6  7  1  0  0  0  0
  7  8  1  0  0  0  0
  7  9  1  0  0  0  0
 10 20  1  0  0  0  0
 10 11  2  0  0  0  0
 11 12  1  0  0  0  0
 12 13  1  0  0  0  0
 12 19  2  0  0  0  0
 13 18  2  0  0  0  0
 13 14  1  0  0  0  0
 14 15  2  0  0  0  0
 14 22  1  0  0  0  0
 15 16  1  0  0  0  0
 15 23  1  0  0  0  0
 16 17  2  0  0  0  0
 16 24  1  0  0  0  0
 17 18  1  0  0  0  0
 17 25  1  0  0  0  0
 18 26  1  0  0  0  0
 19 20  1  0  0  0  0
 19 27  1  0  0  0  0
M  END
$$$$
