ZINC000000035542      none
 OpenBabel11202420153D

 45 47  0  0  1  0  0  0  0  0999 V2000
   33.0464   36.1992   54.6475 C   0  0  0  0  0  0  0  0  0  0  0  0
   33.9770   36.3351   55.8544 C   0  0  0  0  0  0  0  0  0  0  0  0
   33.2624   37.0698   56.9594 C   0  0  0  0  0  0  0  0  0  0  0  0
   33.2905   38.3874   57.0968 C   0  0  0  0  0  0  0  0  0  0  0  0
   34.0322   39.3272   56.1814 C   0  0  0  0  0  0  0  0  0  0  0  0
   32.3426   38.8904   58.4849 S   0  0  0  0  0  0  0  0  0  0  0  0
   31.9214   37.2856   58.8744 C   0  0  0  0  0  0  0  0  0  0  0  0
   31.1239   36.9178   59.9468 N   0  0  0  0  0  0  0  0  0  0  0  0
   31.1115   37.6688   61.0660 C   0  0  0  0  0  0  0  0  0  0  0  0
   31.7982   38.6661   61.1347 O   0  0  0  0  0  0  0  0  0  0  0  0
   30.2445   37.2691   62.2320 C   0  0  2  0  0  0  0  0  0  0  0  0
   29.1965   37.2425   61.9336 H   0  0  0  0  0  0  0  0  0  0  0  0
   30.4466   38.2452   63.4134 C   0  0  0  0  0  0  0  0  0  0  0  0
   30.9919   37.3549   64.5716 C   0  0  1  0  0  0  0  0  0  0  0  0
   31.5086   37.8712   65.3806 H   0  0  0  0  0  0  0  0  0  0  0  0
   29.7763   36.4735   64.9920 C   0  0  0  0  0  0  0  0  0  0  0  0
   29.5743   35.4973   63.8105 C   0  0  0  0  0  0  0  0  0  0  0  0
   30.6868   35.8809   62.7876 C   0  0  2  0  0  0  0  0  0  0  0  0
   30.9390   35.1191   62.0499 H   0  0  0  0  0  0  0  0  0  0  0  0
   31.8399   36.3121   63.7611 C   0  0  0  0  0  0  0  0  0  0  0  0
   32.4755   36.4080   57.9773 C   0  0  0  0  0  0  0  0  0  0  0  0
   32.2907   34.9568   58.0431 C   0  0  0  0  0  0  0  0  0  0  0  0
   33.1613   34.2136   57.6313 O   0  0  0  0  0  0  0  0  0  0  0  0
   31.1552   34.4443   58.5601 O   0  0  0  0  0  0  0  0  0  0  0  0
   31.0405   32.9971   58.5932 C   0  0  0  0  0  0  0  0  0  0  0  0
   33.5632   35.6679   53.8483 H   0  0  0  0  0  0  0  0  0  0  0  0
   32.1551   35.6425   54.9369 H   0  0  0  0  0  0  0  0  0  0  0  0
   32.7581   37.1904   54.2977 H   0  0  0  0  0  0  0  0  0  0  0  0
   34.8683   36.8918   55.5652 H   0  0  0  0  0  0  0  0  0  0  0  0
   34.2652   35.3438   56.2044 H   0  0  0  0  0  0  0  0  0  0  0  0
   33.3762   39.6336   55.3664 H   0  0  0  0  0  0  0  0  0  0  0  0
   34.3493   40.2061   56.7425 H   0  0  0  0  0  0  0  0  0  0  0  0
   34.9071   38.8216   55.7730 H   0  0  0  0  0  0  0  0  0  0  0  0
   30.5746   36.1202   59.8920 H   0  0  0  0  0  0  0  0  0  0  0  0
   29.4973   38.6992   63.6978 H   0  0  0  0  0  0  0  0  0  0  0  0
   31.1729   39.0143   63.1509 H   0  0  0  0  0  0  0  0  0  0  0  0
   30.0037   35.9232   65.9050 H   0  0  0  0  0  0  0  0  0  0  0  0
   28.8891   37.0912   65.1305 H   0  0  0  0  0  0  0  0  0  0  0  0
   28.5876   35.6350   63.3683 H   0  0  0  0  0  0  0  0  0  0  0  0
   29.7023   34.4671   64.1427 H   0  0  0  0  0  0  0  0  0  0  0  0
   32.6681   36.7823   63.2309 H   0  0  0  0  0  0  0  0  0  0  0  0
   32.1787   35.4862   64.3867 H   0  0  0  0  0  0  0  0  0  0  0  0
   31.1038   32.6043   57.5786 H   0  0  0  0  0  0  0  0  0  0  0  0
   31.8495   32.5822   59.1945 H   0  0  0  0  0  0  0  0  0  0  0  0
   30.0823   32.7185   59.0317 H   0  0  0  0  0  0  0  0  0  0  0  0
  1  2  1  0  0  0  0
  1 26  1  0  0  0  0
  1 27  1  0  0  0  0
  1 28  1  0  0  0  0
  2  3  1  0  0  0  0
  2 29  1  0  0  0  0
  2 30  1  0  0  0  0
  3 21  1  0  0  0  0
  3  4  2  0  0  0  0
  4  5  1  0  0  0  0
  4  6  1  0  0  0  0
  5 31  1  0  0  0  0
  5 32  1  0  0  0  0
  5 33  1  0  0  0  0
  6  7  1  0  0  0  0
  7  8  1  0  0  0  0
  7 21  2  0  0  0  0
  8  9  1  0  0  0  0
  8 34  1  0  0  0  0
  9 10  2  0  0  0  0
  9 11  1  0  0  0  0
 11 12  1  6  0  0  0
 11 18  1  0  0  0  0
 11 13  1  0  0  0  0
 13 14  1  0  0  0  0
 13 35  1  0  0  0  0
 13 36  1  0  0  0  0
 14 15  1  1  0  0  0
 14 20  1  0  0  0  0
 14 16  1  0  0  0  0
 16 17  1  0  0  0  0
 16 37  1  0  0  0  0
 16 38  1  0  0  0  0
 17 18  1  0  0  0  0
 17 39  1  0  0  0  0
 17 40  1  0  0  0  0
 18 19  1  6  0  0  0
 18 20  1  0  0  0  0
 20 41  1  0  0  0  0
 20 42  1  0  0  0  0
 21 22  1  0  0  0  0
 22 23  2  0  0  0  0
 22 24  1  0  0  0  0
 24 25  1  0  0  0  0
 25 43  1  0  0  0  0
 25 44  1  0  0  0  0
 25 45  1  0  0  0  0
M  END
$$$$
