ZINC000000029680      none
 OpenBabel11202420163D

 25 26  0  0  0  0  0  0  0  0999 V2000
   31.2465   37.6504   67.0254 O   0  0  0  0  0  0  0  0  0  0  0  0
   30.6725   36.5638   66.3119 S   0  0  0  0  0  0  0  0  0  0  0  0
   31.2316   35.2575   66.3036 O   0  0  0  0  0  0  0  0  0  0  0  0
   29.1215   36.4052   66.8701 N   0  0  0  0  0  2  0  0  0  0  0  0
   28.4600   35.1799   66.7562 C   0  0  0  0  0  0  0  0  0  0  0  0
   28.7550   34.3121   65.7072 C   0  0  0  0  0  0  0  0  0  0  0  0
   28.0689   33.1111   65.6342 C   0  0  0  0  0  0  0  0  0  0  0  0
   27.1250   32.8128   66.5995 C   0  0  0  0  0  0  0  0  0  0  0  0
   26.8726   33.6535   67.5833 N   0  0  0  0  0  0  0  0  0  0  0  0
   27.5024   34.8067   67.6904 C   0  0  0  0  0  0  0  0  0  0  0  0
   30.5714   37.0723   64.6279 C   0  0  0  0  0  0  0  0  0  0  0  0
   30.9337   36.1994   63.6194 C   0  0  0  0  0  0  0  0  0  0  0  0
   30.8488   36.5966   62.2971 C   0  0  0  0  0  0  0  0  0  0  0  0
   31.2965   35.4974   61.0301 Cl  0  0  0  0  0  0  0  0  0  0  0  0
   30.4126   37.8720   61.9844 C   0  0  0  0  0  0  0  0  0  0  0  0
   30.0558   38.7468   62.9929 C   0  0  0  0  0  0  0  0  0  0  0  0
   30.1348   38.3473   64.3154 C   0  0  0  0  0  0  0  0  0  0  0  0
   29.6867   39.4462   65.5823 Cl  0  0  0  0  0  0  0  0  0  0  0  0
   29.4976   34.5711   64.9668 H   0  0  0  0  0  0  0  0  0  0  0  0
   28.2686   32.4159   64.8322 H   0  0  0  0  0  0  0  0  0  0  0  0
   26.5871   31.8777   66.5471 H   0  0  0  0  0  0  0  0  0  0  0  0
   27.2681   35.4697   68.5102 H   0  0  0  0  0  0  0  0  0  0  0  0
   31.2787   35.2055   63.8636 H   0  0  0  0  0  0  0  0  0  0  0  0
   30.3513   38.1840   60.9523 H   0  0  0  0  0  0  0  0  0  0  0  0
   29.7157   39.7423   62.7489 H   0  0  0  0  0  0  0  0  0  0  0  0
  1  2  2  0  0  0  0
  2  3  2  0  0  0  0
  2  4  1  0  0  0  0
  2 11  1  0  0  0  0
  4  5  1  0  0  0  0
  5 10  2  0  0  0  0
  5  6  1  0  0  0  0
  6  7  2  0  0  0  0
  6 19  1  0  0  0  0
  7  8  1  0  0  0  0
  7 20  1  0  0  0  0
  8  9  2  0  0  0  0
  8 21  1  0  0  0  0
  9 10  1  0  0  0  0
 10 22  1  0  0  0  0
 11 17  2  0  0  0  0
 11 12  1  0  0  0  0
 12 13  2  0  0  0  0
 12 23  1  0  0  0  0
 13 14  1  0  0  0  0
 13 15  1  0  0  0  0
 15 16  2  0  0  0  0
 15 24  1  0  0  0  0
 16 17  1  0  0  0  0
 16 25  1  0  0  0  0
 17 18  1  0  0  0  0
M  END
$$$$
