ZINC000000034288      none
 OpenBabel11202420153D

 34 36  0  0  0  0  0  0  0  0999 V2000
   33.3506   36.4734   63.5345 O   0  0  0  0  0  0  0  0  0  0  0  0
   32.2165   36.8529   63.7362 C   0  0  0  0  0  0  0  0  0  0  0  0
   31.8692   37.5321   65.0358 C   0  0  0  0  0  0  0  0  0  0  0  0
   31.2537   39.2048   64.6983 S   0  0  0  0  0  0  0  0  0  0  0  0
   30.9054   39.8313   66.3080 C   0  0  0  0  0  0  0  0  0  0  0  0
   30.4227   41.0473   66.5824 N   0  0  0  0  0  0  0  0  0  0  0  0
   30.2796   41.1852   67.8760 C   0  0  0  0  0  0  0  0  0  0  0  0
   30.6812   40.0474   68.4668 N   0  0  0  0  0  0  0  0  0  0  0  0
   30.6914   39.8597   69.4184 H   0  0  0  0  0  0  0  0  0  0  0  0
   31.0827   39.1829   67.4354 N   0  0  0  0  0  0  0  0  0  0  0  0
   31.2669   36.6674   62.7980 N   0  0  0  0  0  0  0  0  0  0  0  0
   31.6045   36.0073   61.5345 C   0  0  0  0  0  0  0  0  0  0  0  0
   32.0400   37.0412   60.5283 C   0  0  0  0  0  0  0  0  0  0  0  0
   32.0729   38.2974   60.8601 N   0  0  0  0  0  0  0  0  0  0  0  0
   32.4720   39.3002   59.9761 N   0  0  0  0  0  0  0  0  0  0  0  0
   32.4768   40.2217   60.2787 H   0  0  0  0  0  0  0  0  0  0  0  0
   32.8509   39.0221   58.7112 C   0  0  0  0  0  0  0  0  0  0  0  0
   33.1957   39.9138   57.9564 O   0  0  0  0  0  0  0  0  0  0  0  0
   32.8403   37.6244   58.2622 C   0  0  0  0  0  0  0  0  0  0  0  0
   33.2188   37.2601   56.9707 C   0  0  0  0  0  0  0  0  0  0  0  0
   33.1899   35.9316   56.6071 C   0  0  0  0  0  0  0  0  0  0  0  0
   32.7869   34.9575   57.5115 C   0  0  0  0  0  0  0  0  0  0  0  0
   32.4113   35.2917   58.7825 C   0  0  0  0  0  0  0  0  0  0  0  0
   32.4316   36.6299   59.1800 C   0  0  0  0  0  0  0  0  0  0  0  0
   31.0986   36.9585   65.5510 H   0  0  0  0  0  0  0  0  0  0  0  0
   32.7584   37.5919   65.6635 H   0  0  0  0  0  0  0  0  0  0  0  0
   29.9069   42.0638   68.3817 H   0  0  0  0  0  0  0  0  0  0  0  0
   30.3598   36.9709   62.9594 H   0  0  0  0  0  0  0  0  0  0  0  0
   30.7300   35.4779   61.1562 H   0  0  0  0  0  0  0  0  0  0  0  0
   32.4151   35.2977   61.7005 H   0  0  0  0  0  0  0  0  0  0  0  0
   33.5323   38.0124   56.2620 H   0  0  0  0  0  0  0  0  0  0  0  0
   33.4828   35.6447   55.6079 H   0  0  0  0  0  0  0  0  0  0  0  0
   32.7704   33.9217   57.2063 H   0  0  0  0  0  0  0  0  0  0  0  0
   32.1001   34.5244   59.4759 H   0  0  0  0  0  0  0  0  0  0  0  0
  1  2  2  0  0  0  0
  2  3  1  0  0  0  0
  2 11  1  0  0  0  0
  3  4  1  0  0  0  0
  3 25  1  0  0  0  0
  3 26  1  0  0  0  0
  4  5  1  0  0  0  0
  5 10  2  0  0  0  0
  5  6  1  0  0  0  0
  6  7  2  0  0  0  0
  7  8  1  0  0  0  0
  7 27  1  0  0  0  0
  8  9  1  0  0  0  0
  8 10  1  0  0  0  0
 11 12  1  0  0  0  0
 11 28  1  0  0  0  0
 12 13  1  0  0  0  0
 12 29  1  0  0  0  0
 12 30  1  0  0  0  0
 13 24  1  0  0  0  0
 13 14  2  0  0  0  0
 14 15  1  0  0  0  0
 15 16  1  0  0  0  0
 15 17  1  0  0  0  0
 17 18  2  0  0  0  0
 17 19  1  0  0  0  0
 19 24  2  0  0  0  0
 19 20  1  0  0  0  0
 20 21  2  0  0  0  0
 20 31  1  0  0  0  0
 21 22  1  0  0  0  0
 21 32  1  0  0  0  0
 22 23  2  0  0  0  0
 22 33  1  0  0  0  0
 23 24  1  0  0  0  0
 23 34  1  0  0  0  0
M  END
$$$$
