ZINC000000041523      none
 OpenBabel11202420153D

 36 37  0  0  0  0  0  0  0  0999 V2000
   33.0847   35.3228   56.7971 C   0  0  0  0  0  0  0  0  0  0  0  0
   33.0659   36.7415   57.3048 C   0  0  0  0  0  0  0  0  0  0  0  0
   33.4580   37.7769   56.4763 C   0  0  0  0  0  0  0  0  0  0  0  0
   33.4421   39.0801   56.9383 C   0  0  0  0  0  0  0  0  0  0  0  0
   33.8709   40.2052   56.0321 C   0  0  0  0  0  0  0  0  0  0  0  0
   33.0334   39.3517   58.2293 C   0  0  0  0  0  0  0  0  0  0  0  0
   32.6384   38.3143   59.0637 C   0  0  0  0  0  0  0  0  0  0  0  0
   32.2236   38.5860   60.3722 N   0  0  0  0  0  0  0  0  0  0  0  0
   31.3154   37.7897   60.9702 C   0  0  0  0  0  0  0  0  0  0  0  0
   30.8577   36.8377   60.3742 O   0  0  0  0  0  0  0  0  0  0  0  0
   30.8686   38.0823   62.3794 C   0  0  0  0  0  0  0  0  0  0  0  0
   31.9480   37.2170   63.5465 S   0  0  0  0  0  0  0  0  0  0  0  0
   31.8677   38.3232   64.9155 C   0  0  0  0  0  0  0  0  0  0  0  0
   31.6866   39.6214   64.8443 N   0  0  0  0  0  0  0  0  0  0  0  0
   31.6799   40.1378   66.0846 C   0  0  0  0  0  0  0  0  0  0  0  0
   31.8619   39.1355   66.9610 C   0  0  0  0  0  0  0  0  0  0  0  0
   31.9771   37.9763   66.2271 N   0  0  0  0  0  0  0  0  0  0  0  0
   32.1820   36.6260   66.7571 C   0  0  0  0  0  0  0  0  0  0  0  0
   32.6614   37.0059   58.5987 C   0  0  0  0  0  0  0  0  0  0  0  0
   34.0576   34.8763   57.0025 H   0  0  0  0  0  0  0  0  0  0  0  0
   32.3073   34.7468   57.2992 H   0  0  0  0  0  0  0  0  0  0  0  0
   32.9029   35.3190   55.7224 H   0  0  0  0  0  0  0  0  0  0  0  0
   33.7778   37.5671   55.4662 H   0  0  0  0  0  0  0  0  0  0  0  0
   34.9424   40.3722   56.1422 H   0  0  0  0  0  0  0  0  0  0  0  0
   33.6482   39.9436   54.9976 H   0  0  0  0  0  0  0  0  0  0  0  0
   33.3321   41.1138   56.3011 H   0  0  0  0  0  0  0  0  0  0  0  0
   33.0211   40.3697   58.5896 H   0  0  0  0  0  0  0  0  0  0  0  0
   32.5897   39.3474   60.8488 H   0  0  0  0  0  0  0  0  0  0  0  0
   29.8418   37.7418   62.5131 H   0  0  0  0  0  0  0  0  0  0  0  0
   30.9222   39.1556   62.5621 H   0  0  0  0  0  0  0  0  0  0  0  0
   31.5499   41.1804   66.3346 H   0  0  0  0  0  0  0  0  0  0  0  0
   31.9047   39.2220   68.0367 H   0  0  0  0  0  0  0  0  0  0  0  0
   33.2503   36.4263   66.8396 H   0  0  0  0  0  0  0  0  0  0  0  0
   31.7209   36.5483   67.7418 H   0  0  0  0  0  0  0  0  0  0  0  0
   31.7272   35.8988   66.0845 H   0  0  0  0  0  0  0  0  0  0  0  0
   32.3596   36.1964   59.2467 H   0  0  0  0  0  0  0  0  0  0  0  0
  1  2  1  0  0  0  0
  1 20  1  0  0  0  0
  1 21  1  0  0  0  0
  1 22  1  0  0  0  0
  2 19  2  0  0  0  0
  2  3  1  0  0  0  0
  3  4  2  0  0  0  0
  3 23  1  0  0  0  0
  4  5  1  0  0  0  0
  4  6  1  0  0  0  0
  5 24  1  0  0  0  0
  5 25  1  0  0  0  0
  5 26  1  0  0  0  0
  6  7  2  0  0  0  0
  6 27  1  0  0  0  0
  7  8  1  0  0  0  0
  7 19  1  0  0  0  0
  8  9  1  0  0  0  0
  8 28  1  0  0  0  0
  9 10  2  0  0  0  0
  9 11  1  0  0  0  0
 11 12  1  0  0  0  0
 11 29  1  0  0  0  0
 11 30  1  0  0  0  0
 12 13  1  0  0  0  0
 13 17  1  0  0  0  0
 13 14  2  0  0  0  0
 14 15  1  0  0  0  0
 15 16  2  0  0  0  0
 15 31  1  0  0  0  0
 16 17  1  0  0  0  0
 16 32  1  0  0  0  0
 17 18  1  0  0  0  0
 18 33  1  0  0  0  0
 18 34  1  0  0  0  0
 18 35  1  0  0  0  0
 19 36  1  0  0  0  0
M  END
$$$$
