ZINC000000055222      none
 OpenBabel11202420153D

 38 42  0  0  0  0  0  0  0  0999 V2000
   29.5931   35.4163   65.2626 O   0  0  0  0  0  0  0  0  0  0  0  0
   30.5529   35.6100   65.9810 C   0  0  0  0  0  0  0  0  0  0  0  0
   30.8483   34.8918   67.2387 C   0  0  0  0  0  0  0  0  0  0  0  0
   30.2185   33.8805   67.9463 C   0  0  0  0  0  0  0  0  0  0  0  0
   30.7757   33.4193   69.1286 C   0  0  0  0  0  0  0  0  0  0  0  0
   31.9545   33.9610   69.6059 C   0  0  0  0  0  0  0  0  0  0  0  0
   32.5956   34.9731   68.9087 C   0  0  0  0  0  0  0  0  0  0  0  0
   32.0502   35.4442   67.7252 C   0  0  0  0  0  0  0  0  0  0  0  0
   32.4447   36.4795   66.7467 C   0  0  0  0  0  0  0  0  0  0  0  0
   33.4336   37.1810   66.8169 O   0  0  0  0  0  0  0  0  0  0  0  0
   31.5284   36.5102   65.7622 N   0  0  0  0  0  0  0  0  0  0  0  0
   31.5836   37.4084   64.6062 C   0  0  0  0  0  0  0  0  0  0  0  0
   30.3691   38.2965   64.6092 C   0  0  0  0  0  0  0  0  0  0  0  0
   29.9297   38.8408   65.8033 C   0  0  0  0  0  0  0  0  0  0  0  0
   28.8166   39.6590   65.8270 C   0  0  0  0  0  0  0  0  0  0  0  0
   28.1371   39.9370   64.6551 C   0  0  0  0  0  0  0  0  0  0  0  0
   28.5717   39.3992   63.4621 C   0  0  0  0  0  0  0  0  0  0  0  0
   29.6904   38.5739   63.4346 C   0  0  0  0  0  0  0  0  0  0  0  0
   30.0989   38.0521   62.2531 O   0  0  0  0  0  0  0  0  0  0  0  0
   30.8911   36.9535   62.2338 C   0  0  0  0  0  0  0  0  0  0  0  0
   30.9547   36.1822   61.0786 C   0  0  0  0  0  0  0  0  0  0  0  0
   31.7558   35.0590   61.0390 C   0  0  0  0  0  0  0  0  0  0  0  0
   32.4977   34.6994   62.1493 C   0  0  0  0  0  0  0  0  0  0  0  0
   32.4375   35.4641   63.2983 C   0  0  0  0  0  0  0  0  0  0  0  0
   31.6352   36.5907   63.3443 C   0  0  0  0  0  0  0  0  0  0  0  0
   29.2973   33.4533   67.5779 H   0  0  0  0  0  0  0  0  0  0  0  0
   30.2853   32.6313   69.6810 H   0  0  0  0  0  0  0  0  0  0  0  0
   32.3791   33.5929   70.5282 H   0  0  0  0  0  0  0  0  0  0  0  0
   33.5162   35.3929   69.2865 H   0  0  0  0  0  0  0  0  0  0  0  0
   32.4801   38.0248   64.6723 H   0  0  0  0  0  0  0  0  0  0  0  0
   30.4584   38.6249   66.7199 H   0  0  0  0  0  0  0  0  0  0  0  0
   28.4770   40.0813   66.7612 H   0  0  0  0  0  0  0  0  0  0  0  0
   27.2671   40.5767   64.6741 H   0  0  0  0  0  0  0  0  0  0  0  0
   28.0404   39.6175   62.5475 H   0  0  0  0  0  0  0  0  0  0  0  0
   30.3760   36.4623   60.2109 H   0  0  0  0  0  0  0  0  0  0  0  0
   31.8029   34.4608   60.1411 H   0  0  0  0  0  0  0  0  0  0  0  0
   33.1249   33.8207   62.1178 H   0  0  0  0  0  0  0  0  0  0  0  0
   33.0182   35.1813   64.1639 H   0  0  0  0  0  0  0  0  0  0  0  0
  1  2  2  0  0  0  0
  2 11  1  0  0  0  0
  2  3  1  0  0  0  0
  3  8  2  0  0  0  0
  3  4  1  0  0  0  0
  4  5  2  0  0  0  0
  4 26  1  0  0  0  0
  5  6  1  0  0  0  0
  5 27  1  0  0  0  0
  6  7  2  0  0  0  0
  6 28  1  0  0  0  0
  7  8  1  0  0  0  0
  7 29  1  0  0  0  0
  8  9  1  0  0  0  0
  9 10  2  0  0  0  0
  9 11  1  0  0  0  0
 11 12  1  0  0  0  0
 12 25  1  0  0  0  0
 12 13  1  0  0  0  0
 12 30  1  0  0  0  0
 13 18  2  0  0  0  0
 13 14  1  0  0  0  0
 14 15  2  0  0  0  0
 14 31  1  0  0  0  0
 15 16  1  0  0  0  0
 15 32  1  0  0  0  0
 16 17  2  0  0  0  0
 16 33  1  0  0  0  0
 17 18  1  0  0  0  0
 17 34  1  0  0  0  0
 18 19  1  0  0  0  0
 19 20  1  0  0  0  0
 20 25  2  0  0  0  0
 20 21  1  0  0  0  0
 21 22  2  0  0  0  0
 21 35  1  0  0  0  0
 22 23  1  0  0  0  0
 22 36  1  0  0  0  0
 23 24  2  0  0  0  0
 23 37  1  0  0  0  0
 24 25  1  0  0  0  0
 24 38  1  0  0  0  0
M  END
$$$$
