ZINC000000007564      none
 OpenBabel11202420153D

 30 33  0  0  0  0  0  0  0  0999 V2000
   30.8900   38.3615   64.9571 C   0  0  0  0  0  0  0  0  0  0  0  0
   31.9536   37.5158   64.6967 C   0  0  0  0  0  0  0  0  0  0  0  0
   32.3397   37.2689   63.3952 C   0  0  0  0  0  0  0  0  0  0  0  0
   31.6554   37.8743   62.3410 C   0  0  0  0  0  0  0  0  0  0  0  0
   32.0685   37.6184   60.9423 C   0  0  0  0  0  0  0  0  0  0  0  0
   32.4591   38.6152   60.1765 N   0  0  0  0  0  0  0  0  0  0  0  0
   32.8438   38.4118   58.8914 C   0  0  0  0  0  0  0  0  0  0  0  0
   33.2533   39.4987   58.1071 C   0  0  0  0  0  0  0  0  0  0  0  0
   33.6433   39.2969   56.8031 C   0  0  0  0  0  0  0  0  0  0  0  0
   33.6347   38.0226   56.2562 C   0  0  0  0  0  0  0  0  0  0  0  0
   33.2342   36.9409   57.0136 C   0  0  0  0  0  0  0  0  0  0  0  0
   32.8374   37.1233   58.3310 C   0  0  0  0  0  0  0  0  0  0  0  0
   32.4334   36.0386   59.0988 N   0  0  0  0  0  0  0  0  0  0  0  0
   32.3166   34.7197   58.8681 C   0  0  0  0  0  0  0  0  0  0  0  0
   31.8821   34.1274   59.9529 N   0  0  0  0  0  0  0  0  0  0  0  0
   31.7018   35.0301   60.9201 C   0  0  0  0  0  0  0  0  0  0  0  0
   32.0495   36.2565   60.4097 C   0  0  0  0  0  0  0  0  0  0  0  0
   30.5841   38.7263   62.6102 C   0  0  0  0  0  0  0  0  0  0  0  0
   30.2073   38.9649   63.9159 C   0  0  0  0  0  0  0  0  0  0  0  0
   30.5915   38.5517   65.9774 H   0  0  0  0  0  0  0  0  0  0  0  0
   32.4824   37.0479   65.5137 H   0  0  0  0  0  0  0  0  0  0  0  0
   33.1696   36.6080   63.1932 H   0  0  0  0  0  0  0  0  0  0  0  0
   33.2622   40.4943   58.5259 H   0  0  0  0  0  0  0  0  0  0  0  0
   33.9586   40.1366   56.2015 H   0  0  0  0  0  0  0  0  0  0  0  0
   33.9431   37.8760   55.2316 H   0  0  0  0  0  0  0  0  0  0  0  0
   33.2298   35.9513   56.5809 H   0  0  0  0  0  0  0  0  0  0  0  0
   32.5454   34.2257   57.9353 H   0  0  0  0  0  0  0  0  0  0  0  0
   31.3508   34.8313   61.9220 H   0  0  0  0  0  0  0  0  0  0  0  0
   30.0502   39.1977   61.7982 H   0  0  0  0  0  0  0  0  0  0  0  0
   29.3778   39.6238   64.1255 H   0  0  0  0  0  0  0  0  0  0  0  0
  1 19  2  0  0  0  0
  1  2  1  0  0  0  0
  1 20  1  0  0  0  0
  2  3  2  0  0  0  0
  2 21  1  0  0  0  0
  3  4  1  0  0  0  0
  3 22  1  0  0  0  0
  4  5  1  0  0  0  0
  4 18  2  0  0  0  0
  5 17  1  0  0  0  0
  5  6  2  0  0  0  0
  6  7  1  0  0  0  0
  7 12  2  0  0  0  0
  7  8  1  0  0  0  0
  8  9  2  0  0  0  0
  8 23  1  0  0  0  0
  9 10  1  0  0  0  0
  9 24  1  0  0  0  0
 10 11  2  0  0  0  0
 10 25  1  0  0  0  0
 11 12  1  0  0  0  0
 11 26  1  0  0  0  0
 12 13  1  0  0  0  0
 13 17  1  0  0  0  0
 13 14  1  0  0  0  0
 14 15  2  0  0  0  0
 14 27  1  0  0  0  0
 15 16  1  0  0  0  0
 16 17  2  0  0  0  0
 16 28  1  0  0  0  0
 18 19  1  0  0  0  0
 18 29  1  0  0  0  0
 19 30  1  0  0  0  0
M  END
$$$$
