ZINC000000052502      none
 OpenBabel11202420153D

 33 35  0  0  0  0  0  0  0  0999 V2000
   32.9362   37.7035   56.9151 O   0  0  0  0  0  0  0  0  0  0  0  0
   33.6298   37.0643   56.1481 C   0  0  0  0  0  0  0  0  0  0  0  0
   33.8992   35.7686   56.4032 N   0  0  0  0  0  0  0  0  0  0  0  0
   33.3843   35.1638   57.5419 C   0  0  0  0  0  0  0  0  0  0  0  0
   33.5682   33.9251   57.9030 N   0  0  0  0  0  0  0  0  0  0  0  0
   33.0237   33.5394   58.9732 N   0  0  0  0  0  0  0  0  0  0  0  0
   32.3169   34.4077   59.6403 C   0  0  0  0  0  0  0  0  0  0  0  0
   31.6023   34.1574   60.9101 C   0  0  0  0  0  0  0  0  0  0  0  0
   30.8835   35.1841   61.5240 C   0  0  0  0  0  0  0  0  0  0  0  0
   30.2149   34.9426   62.7065 C   0  0  0  0  0  0  0  0  0  0  0  0
   30.2651   33.6889   63.2892 C   0  0  0  0  0  0  0  0  0  0  0  0
   29.5503   33.4384   64.5612 N   0  0  0  0  0  0  0  0  0  0  0  0
   28.9200   34.3352   65.0924 O   0  0  0  0  0  0  0  0  0  0  0  0
   29.5927   32.3356   65.0767 O   0  0  0  0  0  0  0  0  0  0  0  0
   30.9797   32.6679   62.6883 C   0  0  0  0  0  0  0  0  0  0  0  0
   31.6484   32.8948   61.5030 C   0  0  0  0  0  0  0  0  0  0  0  0
   32.3709   35.9374   58.7621 S   0  0  0  0  0  0  0  0  0  0  0  0
   34.1773   37.7075   54.9371 C   0  0  0  0  0  0  0  0  0  0  0  0
   34.4155   36.9511   53.7872 C   0  0  0  0  0  0  0  0  0  0  0  0
   34.9215   37.5589   52.6581 C   0  0  0  0  0  0  0  0  0  0  0  0
   35.1996   38.9154   52.6621 C   0  0  0  0  0  0  0  0  0  0  0  0
   34.9729   39.6713   53.7966 C   0  0  0  0  0  0  0  0  0  0  0  0
   34.4652   39.0760   54.9372 C   0  0  0  0  0  0  0  0  0  0  0  0
   34.2432   39.8152   56.0461 F   0  0  0  0  0  0  0  0  0  0  0  0
   34.4525   35.2586   55.7912 H   0  0  0  0  0  0  0  0  0  0  0  0
   30.8477   36.1647   61.0725 H   0  0  0  0  0  0  0  0  0  0  0  0
   29.6550   35.7353   63.1804 H   0  0  0  0  0  0  0  0  0  0  0  0
   31.0145   31.6914   63.1482 H   0  0  0  0  0  0  0  0  0  0  0  0
   32.2059   32.0970   61.0349 H   0  0  0  0  0  0  0  0  0  0  0  0
   34.1995   35.8929   53.7813 H   0  0  0  0  0  0  0  0  0  0  0  0
   35.1017   36.9751   51.7676 H   0  0  0  0  0  0  0  0  0  0  0  0
   35.5962   39.3850   51.7740 H   0  0  0  0  0  0  0  0  0  0  0  0
   35.1921   40.7288   53.7925 H   0  0  0  0  0  0  0  0  0  0  0  0
  1  2  2  0  0  0  0
  2  3  1  0  0  0  0
  2 18  1  0  0  0  0
  3  4  1  0  0  0  0
  3 25  1  0  0  0  0
  4 17  1  0  0  0  0
  4  5  2  0  0  0  0
  5  6  1  0  0  0  0
  6  7  2  0  0  0  0
  7  8  1  0  0  0  0
  7 17  1  0  0  0  0
  8 16  2  0  0  0  0
  8  9  1  0  0  0  0
  9 10  2  0  0  0  0
  9 26  1  0  0  0  0
 10 11  1  0  0  0  0
 10 27  1  0  0  0  0
 11 12  1  0  0  0  0
 11 15  2  0  0  0  0
 12 13  2  0  0  0  0
 12 14  2  0  0  0  0
 15 16  1  0  0  0  0
 15 28  1  0  0  0  0
 16 29  1  0  0  0  0
 18 23  2  0  0  0  0
 18 19  1  0  0  0  0
 19 20  2  0  0  0  0
 19 30  1  0  0  0  0
 20 21  1  0  0  0  0
 20 31  1  0  0  0  0
 21 22  2  0  0  0  0
 21 32  1  0  0  0  0
 22 23  1  0  0  0  0
 22 33  1  0  0  0  0
 23 24  1  0  0  0  0
M  END
$$$$
