ZINC000000051500      none
 OpenBabel11202420153D

 33 34  0  0  0  0  0  0  0  0999 V2000
   29.9704   37.4232   62.0428 C   0  0  0  0  0  0  0  0  0  0  0  0
   30.3504   35.9674   61.9574 C   0  0  0  0  0  0  0  0  0  0  0  0
   30.4867   35.3599   60.7229 C   0  0  0  0  0  0  0  0  0  0  0  0
   30.8306   34.0235   60.6447 C   0  0  0  0  0  0  0  0  0  0  0  0
   30.9728   33.3720   59.3232 N   0  0  0  0  0  0  0  0  0  0  0  0
   30.7868   34.0137   58.3047 O   0  0  0  0  0  0  0  0  0  0  0  0
   31.2759   32.1944   59.2542 O   0  0  0  0  0  0  0  0  0  0  0  0
   31.0423   33.2953   61.8008 C   0  0  0  0  0  0  0  0  0  0  0  0
   30.9103   33.9039   63.0347 C   0  0  0  0  0  0  0  0  0  0  0  0
   30.5672   35.2408   63.1129 C   0  0  0  0  0  0  0  0  0  0  0  0
   30.3990   36.0166   64.6860 S   0  0  0  0  0  0  0  0  0  0  0  0
   30.7164   35.0285   65.6566 O   0  0  0  0  0  0  0  0  0  0  0  0
   29.1597   36.7113   64.6605 O   0  0  0  0  0  0  0  0  0  0  0  0
   31.5807   37.1721   64.7915 N   0  0  0  0  0  0  0  0  0  0  0  0
   33.0040   36.8095   64.6995 C   0  0  0  0  0  0  0  0  0  0  0  0
   33.7412   37.4405   65.8863 C   0  0  0  0  0  0  0  0  0  0  0  0
   33.4430   38.8378   65.9379 O   0  0  0  0  0  0  0  0  0  0  0  0
   32.0613   39.1338   66.1550 C   0  0  0  0  0  0  0  0  0  0  0  0
   31.2382   38.5905   64.9814 C   0  0  0  0  0  0  0  0  0  0  0  0
   30.8726   38.0350   62.0410 H   0  0  0  0  0  0  0  0  0  0  0  0
   29.3504   37.6877   61.1863 H   0  0  0  0  0  0  0  0  0  0  0  0
   29.4135   37.6000   62.9630 H   0  0  0  0  0  0  0  0  0  0  0  0
   30.3218   35.9288   59.8199 H   0  0  0  0  0  0  0  0  0  0  0  0
   31.3110   32.2510   61.7396 H   0  0  0  0  0  0  0  0  0  0  0  0
   31.0757   33.3350   63.9377 H   0  0  0  0  0  0  0  0  0  0  0  0
   33.4191   37.1888   63.7658 H   0  0  0  0  0  0  0  0  0  0  0  0
   33.1105   35.7253   64.7356 H   0  0  0  0  0  0  0  0  0  0  0  0
   34.8153   37.3017   65.7632 H   0  0  0  0  0  0  0  0  0  0  0  0
   33.4163   36.9645   66.8114 H   0  0  0  0  0  0  0  0  0  0  0  0
   31.7295   38.6638   67.0809 H   0  0  0  0  0  0  0  0  0  0  0  0
   31.9271   40.2131   66.2262 H   0  0  0  0  0  0  0  0  0  0  0  0
   30.1753   38.6850   65.2037 H   0  0  0  0  0  0  0  0  0  0  0  0
   31.4757   39.1499   64.0765 H   0  0  0  0  0  0  0  0  0  0  0  0
  1  2  1  0  0  0  0
  1 20  1  0  0  0  0
  1 21  1  0  0  0  0
  1 22  1  0  0  0  0
  2 10  2  0  0  0  0
  2  3  1  0  0  0  0
  3  4  2  0  0  0  0
  3 23  1  0  0  0  0
  4  5  1  0  0  0  0
  4  8  1  0  0  0  0
  5  6  2  0  0  0  0
  5  7  2  0  0  0  0
  8  9  2  0  0  0  0
  8 24  1  0  0  0  0
  9 10  1  0  0  0  0
  9 25  1  0  0  0  0
 10 11  1  0  0  0  0
 11 12  2  0  0  0  0
 11 13  2  0  0  0  0
 11 14  1  0  0  0  0
 14 19  1  0  0  0  0
 14 15  1  0  0  0  0
 15 16  1  0  0  0  0
 15 26  1  0  0  0  0
 15 27  1  0  0  0  0
 16 17  1  0  0  0  0
 16 28  1  0  0  0  0
 16 29  1  0  0  0  0
 17 18  1  0  0  0  0
 18 19  1  0  0  0  0
 18 30  1  0  0  0  0
 18 31  1  0  0  0  0
 19 32  1  0  0  0  0
 19 33  1  0  0  0  0
M  END
$$$$
