ZINC000000055239      none
 OpenBabel11202420153D

 33 35  0  0  0  0  0  0  0  0999 V2000
   33.3250   38.2866   55.6922 O   0  0  0  0  0  0  0  0  0  0  0  0
   33.4816   37.0893   55.7998 C   0  0  0  0  0  0  0  0  0  0  0  0
   34.0013   36.1722   54.7141 C   0  0  0  0  0  0  0  0  0  0  0  0
   33.9909   34.7813   55.3803 C   0  0  0  0  0  0  0  0  0  0  0  0
   33.4717   35.0594   56.7742 C   0  0  0  0  0  0  0  0  0  0  0  0
   33.3060   34.2280   57.6408 O   0  0  0  0  0  0  0  0  0  0  0  0
   33.2247   36.3693   56.8989 N   0  0  0  0  0  0  0  0  0  0  0  0
   32.7317   36.9398   58.0824 C   0  0  0  0  0  0  0  0  0  0  0  0
   31.9230   36.1934   58.9286 C   0  0  0  0  0  0  0  0  0  0  0  0
   31.4387   36.7548   60.0932 C   0  0  0  0  0  0  0  0  0  0  0  0
   31.7600   38.0650   60.4179 C   0  0  0  0  0  0  0  0  0  0  0  0
   31.2828   38.6174   61.5646 O   0  0  0  0  0  0  0  0  0  0  0  0
   31.3473   37.8788   62.7034 C   0  0  0  0  0  0  0  0  0  0  0  0
   30.2547   37.8206   63.5567 C   0  0  0  0  0  0  0  0  0  0  0  0
   30.3209   37.0644   64.7109 C   0  0  0  0  0  0  0  0  0  0  0  0
   31.4785   36.3752   65.0218 C   0  0  0  0  0  0  0  0  0  0  0  0
   32.5707   36.4362   64.1761 C   0  0  0  0  0  0  0  0  0  0  0  0
   32.5079   37.1863   63.0178 C   0  0  0  0  0  0  0  0  0  0  0  0
   32.5679   38.8115   59.5721 C   0  0  0  0  0  0  0  0  0  0  0  0
   33.0527   38.2508   58.4074 C   0  0  0  0  0  0  0  0  0  0  0  0
   35.0143   36.4511   54.4242 H   0  0  0  0  0  0  0  0  0  0  0  0
   33.3379   36.1884   53.8495 H   0  0  0  0  0  0  0  0  0  0  0  0
   34.9988   34.3682   55.4218 H   0  0  0  0  0  0  0  0  0  0  0  0
   33.3202   34.1063   54.8488 H   0  0  0  0  0  0  0  0  0  0  0  0
   31.6765   35.1721   58.6781 H   0  0  0  0  0  0  0  0  0  0  0  0
   30.8098   36.1740   60.7517 H   0  0  0  0  0  0  0  0  0  0  0  0
   29.3518   38.3626   63.3167 H   0  0  0  0  0  0  0  0  0  0  0  0
   29.4692   37.0150   65.3732 H   0  0  0  0  0  0  0  0  0  0  0  0
   31.5299   35.7885   65.9271 H   0  0  0  0  0  0  0  0  0  0  0  0
   33.4739   35.8973   64.4216 H   0  0  0  0  0  0  0  0  0  0  0  0
   33.3613   37.2339   62.3578 H   0  0  0  0  0  0  0  0  0  0  0  0
   32.8173   39.8315   59.8249 H   0  0  0  0  0  0  0  0  0  0  0  0
   33.6815   38.8318   57.7491 H   0  0  0  0  0  0  0  0  0  0  0  0
  1  2  2  0  0  0  0
  2  7  1  0  0  0  0
  2  3  1  0  0  0  0
  3  4  1  0  0  0  0
  3 21  1  0  0  0  0
  3 22  1  0  0  0  0
  4  5  1  0  0  0  0
  4 23  1  0  0  0  0
  4 24  1  0  0  0  0
  5  6  2  0  0  0  0
  5  7  1  0  0  0  0
  7  8  1  0  0  0  0
  8 20  2  0  0  0  0
  8  9  1  0  0  0  0
  9 10  2  0  0  0  0
  9 25  1  0  0  0  0
 10 11  1  0  0  0  0
 10 26  1  0  0  0  0
 11 12  1  0  0  0  0
 11 19  2  0  0  0  0
 12 13  1  0  0  0  0
 13 18  2  0  0  0  0
 13 14  1  0  0  0  0
 14 15  2  0  0  0  0
 14 27  1  0  0  0  0
 15 16  1  0  0  0  0
 15 28  1  0  0  0  0
 16 17  2  0  0  0  0
 16 29  1  0  0  0  0
 17 18  1  0  0  0  0
 17 30  1  0  0  0  0
 18 31  1  0  0  0  0
 19 20  1  0  0  0  0
 19 32  1  0  0  0  0
 20 33  1  0  0  0  0
M  END
$$$$
