ZINC000000033010      none
 OpenBabel11202420153D

 41 43  0  0  0  0  0  0  0  0999 V2000
   30.5299   40.3386   67.2035 C   0  0  0  0  0  0  0  0  0  0  0  0
   30.3745   39.1143   66.2990 C   0  0  0  0  0  0  0  0  0  0  0  0
   28.8877   38.8138   66.0985 C   0  0  0  0  0  0  0  0  0  0  0  0
   31.0253   39.3960   64.9434 C   0  0  0  0  0  0  0  0  0  0  0  0
   30.8778   38.2342   64.0849 O   0  0  0  0  0  0  0  0  0  0  0  0
   30.8014   38.4594   62.7585 C   0  0  0  0  0  0  0  0  0  0  0  0
   30.3212   39.4961   62.3449 O   0  0  0  0  0  0  0  0  0  0  0  0
   31.3005   37.4480   61.8093 C   0  0  0  0  0  0  0  0  0  0  0  0
   31.8070   37.8392   60.5671 C   0  0  0  0  0  0  0  0  0  0  0  0
   32.2724   36.8888   59.6846 C   0  0  0  0  0  0  0  0  0  0  0  0
   32.2412   35.5453   60.0226 C   0  0  0  0  0  0  0  0  0  0  0  0
   31.7441   35.1440   61.2463 C   0  0  0  0  0  0  0  0  0  0  0  0
   31.2653   36.0865   62.1456 C   0  0  0  0  0  0  0  0  0  0  0  0
   30.7566   35.6823   63.3804 N   0  0  0  0  0  0  0  0  0  0  0  0
   31.4929   35.5398   64.4971 C   0  0  0  0  0  0  0  0  0  0  0  0
   32.6873   35.7395   64.5890 O   0  0  0  0  0  0  0  0  0  0  0  0
   30.6047   35.1022   65.5943 C   0  0  0  0  0  0  0  0  0  0  0  0
   30.7957   34.8054   66.9343 C   0  0  0  0  0  0  0  0  0  0  0  0
   29.7185   34.4061   67.7100 C   0  0  0  0  0  0  0  0  0  0  0  0
   28.4563   34.3022   67.1559 C   0  0  0  0  0  0  0  0  0  0  0  0
   28.2500   34.5959   65.8171 C   0  0  0  0  0  0  0  0  0  0  0  0
   29.3173   34.9964   65.0293 C   0  0  0  0  0  0  0  0  0  0  0  0
   29.4664   35.3781   63.6095 C   0  0  0  0  0  0  0  0  0  0  0  0
   28.5736   35.4118   62.7870 O   0  0  0  0  0  0  0  0  0  0  0  0
   30.0451   41.1973   66.7393 H   0  0  0  0  0  0  0  0  0  0  0  0
   30.0662   40.1378   68.1694 H   0  0  0  0  0  0  0  0  0  0  0  0
   31.5891   40.5526   67.3465 H   0  0  0  0  0  0  0  0  0  0  0  0
   30.8593   38.2556   66.7635 H   0  0  0  0  0  0  0  0  0  0  0  0
   28.7771   37.9417   65.4541 H   0  0  0  0  0  0  0  0  0  0  0  0
   28.4241   38.6132   67.0643 H   0  0  0  0  0  0  0  0  0  0  0  0
   28.4030   39.6726   65.6340 H   0  0  0  0  0  0  0  0  0  0  0  0
   32.0845   39.6100   65.0862 H   0  0  0  0  0  0  0  0  0  0  0  0
   30.5405   40.2548   64.4790 H   0  0  0  0  0  0  0  0  0  0  0  0
   31.8335   38.8850   60.2989 H   0  0  0  0  0  0  0  0  0  0  0  0
   32.6636   37.1924   58.7248 H   0  0  0  0  0  0  0  0  0  0  0  0
   32.6085   34.8077   59.3245 H   0  0  0  0  0  0  0  0  0  0  0  0
   31.7235   34.0950   61.5023 H   0  0  0  0  0  0  0  0  0  0  0  0
   31.7796   34.8848   67.3725 H   0  0  0  0  0  0  0  0  0  0  0  0
   29.8663   34.1748   68.7545 H   0  0  0  0  0  0  0  0  0  0  0  0
   27.6248   33.9905   67.7708 H   0  0  0  0  0  0  0  0  0  0  0  0
   27.2616   34.5133   65.3898 H   0  0  0  0  0  0  0  0  0  0  0  0
  1  2  1  0  0  0  0
  1 25  1  0  0  0  0
  1 26  1  0  0  0  0
  1 27  1  0  0  0  0
  2  3  1  0  0  0  0
  2  4  1  0  0  0  0
  2 28  1  0  0  0  0
  3 29  1  0  0  0  0
  3 30  1  0  0  0  0
  3 31  1  0  0  0  0
  4  5  1  0  0  0  0
  4 32  1  0  0  0  0
  4 33  1  0  0  0  0
  5  6  1  0  0  0  0
  6  7  2  0  0  0  0
  6  8  1  0  0  0  0
  8 13  2  0  0  0  0
  8  9  1  0  0  0  0
  9 10  2  0  0  0  0
  9 34  1  0  0  0  0
 10 11  1  0  0  0  0
 10 35  1  0  0  0  0
 11 12  2  0  0  0  0
 11 36  1  0  0  0  0
 12 13  1  0  0  0  0
 12 37  1  0  0  0  0
 13 14  1  0  0  0  0
 14 23  1  0  0  0  0
 14 15  1  0  0  0  0
 15 16  2  0  0  0  0
 15 17  1  0  0  0  0
 17 22  2  0  0  0  0
 17 18  1  0  0  0  0
 18 19  2  0  0  0  0
 18 38  1  0  0  0  0
 19 20  1  0  0  0  0
 19 39  1  0  0  0  0
 20 21  2  0  0  0  0
 20 40  1  0  0  0  0
 21 22  1  0  0  0  0
 21 41  1  0  0  0  0
 22 23  1  0  0  0  0
 23 24  2  0  0  0  0
M  END
$$$$
