ZINC000000031530      none
 OpenBabel11202420163D

 22 23  0  0  0  0  0  0  0  0999 V2000
   32.3659   35.8616   58.9218 O   0  0  0  0  0  0  0  0  0  0  0  0
   32.6047   36.9092   58.3604 C   0  0  0  0  0  0  0  0  0  0  0  0
   32.4416   38.2857   58.9669 C   0  0  0  0  0  0  0  0  0  0  0  0
   32.8824   39.2346   57.8339 C   0  0  0  0  0  0  0  0  0  0  0  0
   33.2398   38.2948   56.7032 C   0  0  0  0  0  0  0  0  0  0  0  0
   33.6359   38.6322   55.6081 O   0  0  0  0  0  0  0  0  0  0  0  0
   33.0491   37.0315   57.1034 N   0  0  0  0  0  0  0  0  0  0  0  0
   33.2945   35.9275   56.2743 C   0  0  0  0  0  0  0  0  0  0  0  0
   33.6841   34.7153   56.8279 C   0  0  0  0  0  0  0  0  0  0  0  0
   33.9255   33.6291   56.0099 C   0  0  0  0  0  0  0  0  0  0  0  0
   33.7800   33.7478   54.6390 C   0  0  0  0  0  0  0  0  0  0  0  0
   34.0847   32.3806   53.6134 Cl  0  0  0  0  0  0  0  0  0  0  0  0
   33.3912   34.9553   54.0839 C   0  0  0  0  0  0  0  0  0  0  0  0
   33.2084   35.1008   52.3638 Cl  0  0  0  0  0  0  0  0  0  0  0  0
   33.1430   36.0436   54.8995 C   0  0  0  0  0  0  0  0  0  0  0  0
   31.4009   38.4651   59.2370 H   0  0  0  0  0  0  0  0  0  0  0  0
   33.0898   38.4014   59.8355 H   0  0  0  0  0  0  0  0  0  0  0  0
   33.7510   39.8202   58.1351 H   0  0  0  0  0  0  0  0  0  0  0  0
   32.0615   39.8901   57.5428 H   0  0  0  0  0  0  0  0  0  0  0  0
   33.7986   34.6219   57.8978 H   0  0  0  0  0  0  0  0  0  0  0  0
   34.2285   32.6861   56.4406 H   0  0  0  0  0  0  0  0  0  0  0  0
   32.8355   36.9842   54.4672 H   0  0  0  0  0  0  0  0  0  0  0  0
  1  2  2  0  0  0  0
  2  7  1  0  0  0  0
  2  3  1  0  0  0  0
  3  4  1  0  0  0  0
  3 16  1  0  0  0  0
  3 17  1  0  0  0  0
  4  5  1  0  0  0  0
  4 18  1  0  0  0  0
  4 19  1  0  0  0  0
  5  6  2  0  0  0  0
  5  7  1  0  0  0  0
  7  8  1  0  0  0  0
  8 15  2  0  0  0  0
  8  9  1  0  0  0  0
  9 10  2  0  0  0  0
  9 20  1  0  0  0  0
 10 11  1  0  0  0  0
 10 21  1  0  0  0  0
 11 12  1  0  0  0  0
 11 13  2  0  0  0  0
 13 14  1  0  0  0  0
 13 15  1  0  0  0  0
 15 22  1  0  0  0  0
M  END
$$$$
