ZINC000000056333      none
 OpenBabel11202420153D

 41 44  0  0  0  0  0  0  0  0999 V2000
   30.6043   34.8318   60.4192 C   0  0  0  0  0  0  0  0  0  0  0  0
   32.0383   35.2557   60.7431 C   0  0  0  0  0  0  0  0  0  0  0  0
   32.2645   36.6673   60.2666 C   0  0  0  0  0  0  0  0  0  0  0  0
   32.0547   37.8055   60.9782 C   0  0  0  0  0  0  0  0  0  0  0  0
   31.5590   37.8821   62.3741 C   0  0  0  0  0  0  0  0  0  0  0  0
   30.3770   38.5629   62.6603 C   0  0  0  0  0  0  0  0  0  0  0  0
   29.9172   38.6256   63.9600 C   0  0  0  0  0  0  0  0  0  0  0  0
   30.6334   38.0246   64.9795 C   0  0  0  0  0  0  0  0  0  0  0  0
   31.8103   37.3528   64.7022 C   0  0  0  0  0  0  0  0  0  0  0  0
   32.2763   37.2784   63.4053 C   0  0  0  0  0  0  0  0  0  0  0  0
   32.3767   38.8531   60.1927 N   0  0  0  0  0  0  0  0  0  0  0  0
   32.7783   38.4098   59.0208 C   0  0  0  0  0  0  0  0  0  0  0  0
   33.2374   38.8116   57.7811 N   0  0  0  0  0  0  0  0  0  0  0  0
   33.3746   39.7291   57.4978 H   0  0  0  0  0  0  0  0  0  0  0  0
   33.4656   37.6983   57.0206 C   0  0  0  0  0  0  0  0  0  0  0  0
   33.1496   36.5932   57.7831 C   0  0  0  0  0  0  0  0  0  0  0  0
   33.3044   35.3082   57.2247 C   0  0  0  0  0  0  0  0  0  0  0  0
   33.0324   34.3162   57.8781 O   0  0  0  0  0  0  0  0  0  0  0  0
   33.7479   35.1883   55.9568 N   0  0  0  0  0  0  0  0  0  0  0  0
   33.9056   33.8562   55.3680 C   0  0  0  0  0  0  0  0  0  0  0  0
   34.0516   36.2771   55.2284 C   0  0  0  0  0  0  0  0  0  0  0  0
   34.4538   36.1378   54.0893 O   0  0  0  0  0  0  0  0  0  0  0  0
   33.9193   37.5178   55.7332 N   0  0  0  0  0  0  0  0  0  0  0  0
   34.2599   38.6806   54.9098 C   0  0  0  0  0  0  0  0  0  0  0  0
   32.7210   37.0497   59.0317 N   0  0  0  0  0  0  0  0  0  0  0  0
   29.9054   35.5011   60.9208 H   0  0  0  0  0  0  0  0  0  0  0  0
   30.4452   34.8816   59.3420 H   0  0  0  0  0  0  0  0  0  0  0  0
   30.4405   33.8108   60.7638 H   0  0  0  0  0  0  0  0  0  0  0  0
   32.7371   34.5864   60.2414 H   0  0  0  0  0  0  0  0  0  0  0  0
   32.1972   35.2059   61.8203 H   0  0  0  0  0  0  0  0  0  0  0  0
   29.8193   39.0364   61.8657 H   0  0  0  0  0  0  0  0  0  0  0  0
   28.9987   39.1485   64.1822 H   0  0  0  0  0  0  0  0  0  0  0  0
   30.2724   38.0803   65.9959 H   0  0  0  0  0  0  0  0  0  0  0  0
   32.3655   36.8853   65.5020 H   0  0  0  0  0  0  0  0  0  0  0  0
   33.1951   36.7530   63.1898 H   0  0  0  0  0  0  0  0  0  0  0  0
   34.2746   33.9518   54.3467 H   0  0  0  0  0  0  0  0  0  0  0  0
   34.6173   33.2797   55.9590 H   0  0  0  0  0  0  0  0  0  0  0  0
   32.9425   33.3460   55.3600 H   0  0  0  0  0  0  0  0  0  0  0  0
   35.3112   38.9309   55.0516 H   0  0  0  0  0  0  0  0  0  0  0  0
   34.0802   38.4478   53.8602 H   0  0  0  0  0  0  0  0  0  0  0  0
   33.6415   39.5284   55.2049 H   0  0  0  0  0  0  0  0  0  0  0  0
  1  2  1  0  0  0  0
  1 26  1  0  0  0  0
  1 27  1  0  0  0  0
  1 28  1  0  0  0  0
  2  3  1  0  0  0  0
  2 29  1  0  0  0  0
  2 30  1  0  0  0  0
  3 25  1  0  0  0  0
  3  4  2  0  0  0  0
  4  5  1  0  0  0  0
  4 11  1  0  0  0  0
  5 10  2  0  0  0  0
  5  6  1  0  0  0  0
  6  7  2  0  0  0  0
  6 31  1  0  0  0  0
  7  8  1  0  0  0  0
  7 32  1  0  0  0  0
  8  9  2  0  0  0  0
  8 33  1  0  0  0  0
  9 10  1  0  0  0  0
  9 34  1  0  0  0  0
 10 35  1  0  0  0  0
 11 12  2  0  0  0  0
 12 25  1  0  0  0  0
 12 13  1  0  0  0  0
 13 14  1  0  0  0  0
 13 15  1  0  0  0  0
 15 23  1  0  0  0  0
 15 16  2  0  0  0  0
 16 17  1  0  0  0  0
 16 25  1  0  0  0  0
 17 18  2  0  0  0  0
 17 19  1  0  0  0  0
 19 20  1  0  0  0  0
 19 21  1  0  0  0  0
 20 36  1  0  0  0  0
 20 37  1  0  0  0  0
 20 38  1  0  0  0  0
 21 22  2  0  0  0  0
 21 23  1  0  0  0  0
 23 24  1  0  0  0  0
 24 39  1  0  0  0  0
 24 40  1  0  0  0  0
 24 41  1  0  0  0  0
M  END
$$$$
