ZINC000000001652      none
 OpenBabel11202420153D

 32 33  0  0  0  0  0  0  0  0999 V2000
   30.3313   37.0456   63.9664 C   0  0  0  0  0  0  0  0  0  0  0  0
   31.5273   36.0962   63.8721 C   0  0  0  0  0  0  0  0  0  0  0  0
   32.1081   36.1798   62.5438 O   0  0  0  0  0  0  0  0  0  0  0  0
   31.3094   35.8608   61.5053 C   0  0  0  0  0  0  0  0  0  0  0  0
   30.1587   35.5218   61.7049 O   0  0  0  0  0  0  0  0  0  0  0  0
   31.8269   35.9283   60.1341 C   0  0  0  0  0  0  0  0  0  0  0  0
   31.9050   34.9011   59.2387 C   0  0  0  0  0  0  0  0  0  0  0  0
   31.4648   33.4845   59.5041 C   0  0  0  0  0  0  0  0  0  0  0  0
   32.4377   35.3461   58.0766 N   0  0  0  0  0  0  0  0  0  0  0  0
   32.6695   34.5164   56.8916 C   0  0  0  0  0  0  0  0  0  0  0  0
   32.7319   36.6930   58.1655 C   0  0  0  0  0  0  0  0  0  0  0  0
   33.2799   37.6073   57.2717 C   0  0  0  0  0  0  0  0  0  0  0  0
   33.4455   38.9222   57.6464 C   0  0  0  0  0  0  0  0  0  0  0  0
   33.0795   39.3468   58.9202 C   0  0  0  0  0  0  0  0  0  0  0  0
   33.2559   40.6467   59.2785 O   0  0  0  0  0  0  0  0  0  0  0  0
   32.5375   38.4508   59.8223 C   0  0  0  0  0  0  0  0  0  0  0  0
   32.3595   37.1211   59.4493 C   0  0  0  0  0  0  0  0  0  0  0  0
   30.6624   38.0669   63.7782 H   0  0  0  0  0  0  0  0  0  0  0  0
   29.5840   36.7634   63.2247 H   0  0  0  0  0  0  0  0  0  0  0  0
   29.8953   36.9828   64.9634 H   0  0  0  0  0  0  0  0  0  0  0  0
   31.1962   35.0748   64.0602 H   0  0  0  0  0  0  0  0  0  0  0  0
   32.2746   36.3783   64.6137 H   0  0  0  0  0  0  0  0  0  0  0  0
   30.4176   33.3708   59.2240 H   0  0  0  0  0  0  0  0  0  0  0  0
   32.0747   32.7983   58.9164 H   0  0  0  0  0  0  0  0  0  0  0  0
   31.5839   33.2596   60.5640 H   0  0  0  0  0  0  0  0  0  0  0  0
   31.7857   34.5386   56.2540 H   0  0  0  0  0  0  0  0  0  0  0  0
   33.5259   34.9032   56.3392 H   0  0  0  0  0  0  0  0  0  0  0  0
   32.8694   33.4903   57.2000 H   0  0  0  0  0  0  0  0  0  0  0  0
   33.5650   37.2885   56.2800 H   0  0  0  0  0  0  0  0  0  0  0  0
   33.8689   39.6287   56.9477 H   0  0  0  0  0  0  0  0  0  0  0  0
   32.9729   40.8477   60.1811 H   0  0  0  0  0  0  0  0  0  0  0  0
   32.2535   38.7803   60.8109 H   0  0  0  0  0  0  0  0  0  0  0  0
  1  2  1  0  0  0  0
  1 18  1  0  0  0  0
  1 19  1  0  0  0  0
  1 20  1  0  0  0  0
  2  3  1  0  0  0  0
  2 21  1  0  0  0  0
  2 22  1  0  0  0  0
  3  4  1  0  0  0  0
  4  5  2  0  0  0  0
  4  6  1  0  0  0  0
  6 17  1  0  0  0  0
  6  7  2  0  0  0  0
  7  8  1  0  0  0  0
  7  9  1  0  0  0  0
  8 23  1  0  0  0  0
  8 24  1  0  0  0  0
  8 25  1  0  0  0  0
  9 10  1  0  0  0  0
  9 11  1  0  0  0  0
 10 26  1  0  0  0  0
 10 27  1  0  0  0  0
 10 28  1  0  0  0  0
 11 17  2  0  0  0  0
 11 12  1  0  0  0  0
 12 13  2  0  0  0  0
 12 29  1  0  0  0  0
 13 14  1  0  0  0  0
 13 30  1  0  0  0  0
 14 15  1  0  0  0  0
 14 16  2  0  0  0  0
 15 31  1  0  0  0  0
 16 17  1  0  0  0  0
 16 32  1  0  0  0  0
M  END
$$$$
