ZINC000000008956      none
 OpenBabel11202420153D

 31 35  0  0  0  0  0  0  0  0999 V2000
   30.3861   34.1797   64.1832 O   0  0  0  0  0  0  0  0  0  0  0  0
   30.7022   35.0521   63.3978 C   0  0  0  0  0  0  0  0  0  0  0  0
   30.5931   36.4758   63.7838 C   0  0  0  0  0  0  0  0  0  0  0  0
   30.1469   36.8000   64.9935 N   0  0  0  0  0  0  0  0  0  0  0  0
   30.0389   38.0515   65.3792 C   0  0  0  0  0  0  0  0  0  0  0  0
   30.3754   39.0997   64.5343 C   0  0  0  0  0  0  0  0  0  0  0  0
   30.8459   38.8226   63.2627 C   0  0  0  0  0  0  0  0  0  0  0  0
   30.9580   37.4846   62.8771 C   0  0  0  0  0  0  0  0  0  0  0  0
   31.4546   37.1329   61.5302 C   0  0  0  0  0  0  0  0  0  0  0  0
   31.7995   38.0679   60.6733 N   0  0  0  0  0  0  0  0  0  0  0  0
   32.2554   37.8080   59.4416 C   0  0  0  0  0  0  0  0  0  0  0  0
   32.6046   38.8651   58.5815 C   0  0  0  0  0  0  0  0  0  0  0  0
   33.0689   38.5987   57.3286 C   0  0  0  0  0  0  0  0  0  0  0  0
   33.2062   37.2902   56.8794 C   0  0  0  0  0  0  0  0  0  0  0  0
   32.8772   36.2388   57.6878 C   0  0  0  0  0  0  0  0  0  0  0  0
   32.3981   36.4769   58.9754 C   0  0  0  0  0  0  0  0  0  0  0  0
   32.0333   35.3811   59.8744 C   0  0  0  0  0  0  0  0  0  0  0  0
   32.1272   34.0307   59.5380 C   0  0  0  0  0  0  0  0  0  0  0  0
   31.7509   33.0879   60.4791 C   0  0  0  0  0  0  0  0  0  0  0  0
   31.3102   33.4318   61.6738 N   0  0  0  0  0  0  0  0  0  0  0  0
   31.1986   34.6964   62.0521 C   0  0  0  0  0  0  0  0  0  0  0  0
   31.5584   35.7217   61.1604 C   0  0  0  0  0  0  0  0  0  0  0  0
   29.6764   38.2692   66.3729 H   0  0  0  0  0  0  0  0  0  0  0  0
   30.2752   40.1222   64.8675 H   0  0  0  0  0  0  0  0  0  0  0  0
   31.1195   39.6193   62.5867 H   0  0  0  0  0  0  0  0  0  0  0  0
   32.5048   39.8876   58.9144 H   0  0  0  0  0  0  0  0  0  0  0  0
   33.3346   39.4162   56.6747 H   0  0  0  0  0  0  0  0  0  0  0  0
   33.5767   37.1030   55.8823 H   0  0  0  0  0  0  0  0  0  0  0  0
   32.9872   35.2257   57.3299 H   0  0  0  0  0  0  0  0  0  0  0  0
   32.4850   33.7276   58.5651 H   0  0  0  0  0  0  0  0  0  0  0  0
   31.8197   32.0398   60.2275 H   0  0  0  0  0  0  0  0  0  0  0  0
  1  2  2  0  0  0  0
  2 21  1  0  0  0  0
  2  3  1  0  0  0  0
  3  8  2  0  0  0  0
  3  4  1  0  0  0  0
  4  5  2  0  0  0  0
  5  6  1  0  0  0  0
  5 23  1  0  0  0  0
  6  7  2  0  0  0  0
  6 24  1  0  0  0  0
  7  8  1  0  0  0  0
  7 25  1  0  0  0  0
  8  9  1  0  0  0  0
  9 22  2  0  0  0  0
  9 10  1  0  0  0  0
 10 11  2  0  0  0  0
 11 16  1  0  0  0  0
 11 12  1  0  0  0  0
 12 13  2  0  0  0  0
 12 26  1  0  0  0  0
 13 14  1  0  0  0  0
 13 27  1  0  0  0  0
 14 15  2  0  0  0  0
 14 28  1  0  0  0  0
 15 16  1  0  0  0  0
 15 29  1  0  0  0  0
 16 17  2  0  0  0  0
 17 22  1  0  0  0  0
 17 18  1  0  0  0  0
 18 19  2  0  0  0  0
 18 30  1  0  0  0  0
 19 20  1  0  0  0  0
 19 31  1  0  0  0  0
 20 21  2  0  0  0  0
 21 22  1  0  0  0  0
M  END
$$$$
