ZINC000000033737      none
 OpenBabel11202420153D

 33 34  0  0  0  0  0  0  0  0999 V2000
   32.5971   33.4993   61.3360 C   0  0  0  0  0  0  0  0  0  0  0  0
   31.3798   33.6870   60.4283 C   0  0  0  0  0  0  0  0  0  0  0  0
   31.7850   33.5301   59.0293 N   0  0  0  0  0  0  0  0  0  0  0  0
   32.2050   34.6276   58.3051 C   0  0  0  0  0  0  0  0  0  0  0  0
   32.2419   35.8274   58.8775 N   0  0  0  0  0  0  0  0  0  0  0  0
   32.6473   36.8840   58.1805 C   0  0  0  0  0  0  0  0  0  0  0  0
   32.6931   38.1749   58.7985 C   0  0  0  0  0  0  0  0  0  0  0  0
   32.7295   39.1990   59.2888 N   0  0  0  0  0  0  0  0  0  0  0  0
   33.0152   36.7411   56.9111 N   0  0  0  0  0  0  0  0  0  0  0  0
   32.9777   35.5415   56.3391 C   0  0  0  0  0  0  0  0  0  0  0  0
   33.3597   35.3931   55.0211 N   0  0  0  0  0  0  0  0  0  0  0  0
   33.1813   36.6466   54.2772 C   0  0  0  0  0  0  0  0  0  0  0  0
   33.7483   36.4881   52.8645 C   0  0  0  0  0  0  0  0  0  0  0  0
   33.0215   35.3431   52.1537 C   0  0  0  0  0  0  0  0  0  0  0  0
   33.1822   34.0599   52.9737 C   0  0  0  0  0  0  0  0  0  0  0  0
   32.6316   34.2889   54.3832 C   0  0  0  0  0  0  0  0  0  0  0  0
   32.5728   34.4851   57.0364 N   0  0  0  0  0  0  0  0  0  0  0  0
   33.0108   32.5019   61.1872 H   0  0  0  0  0  0  0  0  0  0  0  0
   33.3521   34.2462   61.0903 H   0  0  0  0  0  0  0  0  0  0  0  0
   32.2957   33.6161   62.3769 H   0  0  0  0  0  0  0  0  0  0  0  0
   30.9661   34.6844   60.5771 H   0  0  0  0  0  0  0  0  0  0  0  0
   30.6248   32.9402   60.6739 H   0  0  0  0  0  0  0  0  0  0  0  0
   31.7580   32.6550   58.6118 H   0  0  0  0  0  0  0  0  0  0  0  0
   32.1195   36.8857   54.2177 H   0  0  0  0  0  0  0  0  0  0  0  0
   33.7065   37.4518   54.7910 H   0  0  0  0  0  0  0  0  0  0  0  0
   34.8131   36.2626   52.9230 H   0  0  0  0  0  0  0  0  0  0  0  0
   33.6017   37.4135   52.3076 H   0  0  0  0  0  0  0  0  0  0  0  0
   33.4516   35.1982   51.1627 H   0  0  0  0  0  0  0  0  0  0  0  0
   31.9629   35.5851   52.0596 H   0  0  0  0  0  0  0  0  0  0  0  0
   34.2380   33.7962   53.0339 H   0  0  0  0  0  0  0  0  0  0  0  0
   32.6310   33.2507   52.4948 H   0  0  0  0  0  0  0  0  0  0  0  0
   32.7574   33.3816   54.9740 H   0  0  0  0  0  0  0  0  0  0  0  0
   31.5723   34.5391   54.3231 H   0  0  0  0  0  0  0  0  0  0  0  0
  1  2  1  0  0  0  0
  1 18  1  0  0  0  0
  1 19  1  0  0  0  0
  1 20  1  0  0  0  0
  2  3  1  0  0  0  0
  2 21  1  0  0  0  0
  2 22  1  0  0  0  0
  3  4  1  0  0  0  0
  3 23  1  0  0  0  0
  4 17  2  0  0  0  0
  4  5  1  0  0  0  0
  5  6  2  0  0  0  0
  6  7  1  0  0  0  0
  6  9  1  0  0  0  0
  7  8  3  0  0  0  0
  9 10  2  0  0  0  0
 10 11  1  0  0  0  0
 10 17  1  0  0  0  0
 11 16  1  0  0  0  0
 11 12  1  0  0  0  0
 12 13  1  0  0  0  0
 12 24  1  0  0  0  0
 12 25  1  0  0  0  0
 13 14  1  0  0  0  0
 13 26  1  0  0  0  0
 13 27  1  0  0  0  0
 14 15  1  0  0  0  0
 14 28  1  0  0  0  0
 14 29  1  0  0  0  0
 15 16  1  0  0  0  0
 15 30  1  0  0  0  0
 15 31  1  0  0  0  0
 16 32  1  0  0  0  0
 16 33  1  0  0  0  0
M  END
$$$$
