ZINC000000015951      none
 OpenBabel11202420153D

 29 30  0  0  0  0  0  0  0  0999 V2000
   34.6973   31.6363   52.8748 C   0  0  0  0  0  0  0  0  0  0  0  0
   35.1616   31.6229   54.2261 O   0  0  0  0  0  0  0  0  0  0  0  0
   34.5804   32.4968   55.0864 C   0  0  0  0  0  0  0  0  0  0  0  0
   34.9846   32.5347   56.4153 C   0  0  0  0  0  0  0  0  0  0  0  0
   34.3968   33.4196   57.2911 C   0  0  0  0  0  0  0  0  0  0  0  0
   33.3914   34.2805   56.8419 C   0  0  0  0  0  0  0  0  0  0  0  0
   32.7585   35.2299   57.7767 C   0  0  0  0  0  0  0  0  0  0  0  0
   32.1753   34.8172   58.7600 O   0  0  0  0  0  0  0  0  0  0  0  0
   32.8269   36.5551   57.5405 N   0  0  0  0  0  0  0  0  0  0  0  0
   33.5103   37.1568   56.3895 C   0  0  0  0  0  0  0  0  0  0  0  0
   32.9728   38.6024   56.3008 C   0  0  0  0  0  0  0  0  0  0  0  0
   32.5497   38.8718   57.7634 C   0  0  0  0  0  0  0  0  0  0  0  0
   32.2830   37.4956   58.3320 C   0  0  0  0  0  0  0  0  0  0  0  0
   31.6685   37.2734   59.3531 O   0  0  0  0  0  0  0  0  0  0  0  0
   32.9833   34.2354   55.5057 C   0  0  0  0  0  0  0  0  0  0  0  0
   33.5797   33.3508   54.6355 C   0  0  0  0  0  0  0  0  0  0  0  0
   34.8609   32.6240   52.4440 H   0  0  0  0  0  0  0  0  0  0  0  0
   35.2439   30.8922   52.2955 H   0  0  0  0  0  0  0  0  0  0  0  0
   33.6327   31.4027   52.8539 H   0  0  0  0  0  0  0  0  0  0  0  0
   35.7614   31.8689   56.7616 H   0  0  0  0  0  0  0  0  0  0  0  0
   34.7119   33.4483   58.3237 H   0  0  0  0  0  0  0  0  0  0  0  0
   34.5880   37.1645   56.5524 H   0  0  0  0  0  0  0  0  0  0  0  0
   33.2696   36.6083   55.4789 H   0  0  0  0  0  0  0  0  0  0  0  0
   32.1156   38.6593   55.6299 H   0  0  0  0  0  0  0  0  0  0  0  0
   33.7567   39.2921   55.9880 H   0  0  0  0  0  0  0  0  0  0  0  0
   31.6448   39.4788   57.7930 H   0  0  0  0  0  0  0  0  0  0  0  0
   33.3546   39.3617   58.3113 H   0  0  0  0  0  0  0  0  0  0  0  0
   32.2040   34.8961   55.1558 H   0  0  0  0  0  0  0  0  0  0  0  0
   33.2676   33.3178   53.6020 H   0  0  0  0  0  0  0  0  0  0  0  0
  1  2  1  0  0  0  0
  1 17  1  0  0  0  0
  1 18  1  0  0  0  0
  1 19  1  0  0  0  0
  2  3  1  0  0  0  0
  3 16  2  0  0  0  0
  3  4  1  0  0  0  0
  4  5  2  0  0  0  0
  4 20  1  0  0  0  0
  5  6  1  0  0  0  0
  5 21  1  0  0  0  0
  6  7  1  0  0  0  0
  6 15  2  0  0  0  0
  7  8  2  0  0  0  0
  7  9  1  0  0  0  0
  9 13  1  0  0  0  0
  9 10  1  0  0  0  0
 10 11  1  0  0  0  0
 10 22  1  0  0  0  0
 10 23  1  0  0  0  0
 11 12  1  0  0  0  0
 11 24  1  0  0  0  0
 11 25  1  0  0  0  0
 12 13  1  0  0  0  0
 12 26  1  0  0  0  0
 12 27  1  0  0  0  0
 13 14  2  0  0  0  0
 15 16  1  0  0  0  0
 15 28  1  0  0  0  0
 16 29  1  0  0  0  0
M  END
$$$$
