ZINC000000004321      none
 OpenBabel11202420153D

 22 23  0  0  0  0  0  0  0  0999 V2000
   33.7872   33.0895   54.4298 N   0  0  0  0  0  0  0  0  0  0  0  0
   33.3187   33.6590   55.9125 S   0  0  0  0  0  0  0  0  0  0  0  0
   34.2524   33.0875   56.8185 O   0  0  0  0  0  0  0  0  0  0  0  0
   31.9356   33.3418   55.9886 O   0  0  0  0  0  0  0  0  0  0  0  0
   33.5549   35.4543   55.8032 C   0  0  0  0  0  0  0  0  0  0  0  0
   33.1574   36.0936   57.1088 C   0  0  0  0  0  0  0  0  0  0  0  0
   32.7128   35.4785   58.1611 N   0  0  0  0  0  0  0  0  0  0  0  0
   32.4486   36.4156   59.1859 O   0  0  0  0  0  0  0  0  0  0  0  0
   32.7430   37.6548   58.7441 C   0  0  0  0  0  0  0  0  0  0  0  0
   32.6746   38.9169   59.3221 C   0  0  0  0  0  0  0  0  0  0  0  0
   33.0562   40.0241   58.5960 C   0  0  0  0  0  0  0  0  0  0  0  0
   33.5091   39.8913   57.2909 C   0  0  0  0  0  0  0  0  0  0  0  0
   33.5840   38.6596   56.7045 C   0  0  0  0  0  0  0  0  0  0  0  0
   33.2019   37.5245   57.4231 C   0  0  0  0  0  0  0  0  0  0  0  0
   34.0988   33.7070   53.7495 H   0  0  0  0  0  0  0  0  0  0  0  0
   33.7504   32.1387   54.2416 H   0  0  0  0  0  0  0  0  0  0  0  0
   32.9360   35.8540   54.9998 H   0  0  0  0  0  0  0  0  0  0  0  0
   34.6029   35.6710   55.5968 H   0  0  0  0  0  0  0  0  0  0  0  0
   32.3230   39.0295   60.3370 H   0  0  0  0  0  0  0  0  0  0  0  0
   33.0020   41.0042   59.0465 H   0  0  0  0  0  0  0  0  0  0  0  0
   33.8006   40.7689   56.7330 H   0  0  0  0  0  0  0  0  0  0  0  0
   33.9372   38.5640   55.6883 H   0  0  0  0  0  0  0  0  0  0  0  0
  1  2  1  0  0  0  0
  1 15  1  0  0  0  0
  1 16  1  0  0  0  0
  2  3  2  0  0  0  0
  2  4  2  0  0  0  0
  2  5  1  0  0  0  0
  5  6  1  0  0  0  0
  5 17  1  0  0  0  0
  5 18  1  0  0  0  0
  6 14  1  0  0  0  0
  6  7  2  0  0  0  0
  7  8  1  0  0  0  0
  8  9  1  0  0  0  0
  9 14  2  0  0  0  0
  9 10  1  0  0  0  0
 10 11  2  0  0  0  0
 10 19  1  0  0  0  0
 11 12  1  0  0  0  0
 11 20  1  0  0  0  0
 12 13  2  0  0  0  0
 12 21  1  0  0  0  0
 13 14  1  0  0  0  0
 13 22  1  0  0  0  0
M  END
$$$$
