ZINC000000040548      none
 OpenBabel11202420153D

 29 30  0  0  0  0  0  0  0  0999 V2000
   33.2341   40.7572   58.8503 N   0  0  0  0  0  0  0  0  0  0  0  0
   33.2343   39.5035   58.2639 C   0  0  0  0  0  0  0  0  0  0  0  0
   32.8450   38.4575   58.9782 N   0  0  0  0  0  0  0  0  0  0  0  0
   32.8314   37.2389   58.4507 C   0  0  0  0  0  0  0  0  0  0  0  0
   32.4315   36.1754   59.1897 O   0  0  0  0  0  0  0  0  0  0  0  0
   32.0346   36.4348   60.5377 C   0  0  0  0  0  0  0  0  0  0  0  0
   30.5344   36.7328   60.5792 C   0  0  0  0  0  0  0  0  0  0  0  0
   29.8263   35.6306   60.0883 F   0  0  0  0  0  0  0  0  0  0  0  0
   30.1458   36.9868   61.8989 F   0  0  0  0  0  0  0  0  0  0  0  0
   30.2595   37.8536   59.7883 F   0  0  0  0  0  0  0  0  0  0  0  0
   33.2386   37.0668   57.1306 C   0  0  0  0  0  0  0  0  0  0  0  0
   33.6364   38.1899   56.4081 C   0  0  0  0  0  0  0  0  0  0  0  0
   34.0743   38.0602   54.9968 C   0  0  0  0  0  0  0  0  0  0  0  0
   35.0090   38.9498   54.4699 C   0  0  0  0  0  0  0  0  0  0  0  0
   35.4174   38.8206   53.1579 C   0  0  0  0  0  0  0  0  0  0  0  0
   34.8920   37.8180   52.3629 C   0  0  0  0  0  0  0  0  0  0  0  0
   33.9595   36.9361   52.8787 C   0  0  0  0  0  0  0  0  0  0  0  0
   33.5484   37.0520   54.1911 C   0  0  0  0  0  0  0  0  0  0  0  0
   33.6236   39.3815   57.0050 N   0  0  0  0  0  0  0  0  0  0  0  0
   32.9516   40.8613   59.7724 H   0  0  0  0  0  0  0  0  0  0  0  0
   33.5166   41.5317   58.3392 H   0  0  0  0  0  0  0  0  0  0  0  0
   32.5863   37.2935   60.9202 H   0  0  0  0  0  0  0  0  0  0  0  0
   32.2487   35.5616   61.1539 H   0  0  0  0  0  0  0  0  0  0  0  0
   33.2423   36.0869   56.6763 H   0  0  0  0  0  0  0  0  0  0  0  0
   35.4165   39.7357   55.0886 H   0  0  0  0  0  0  0  0  0  0  0  0
   36.1455   39.5061   52.7501 H   0  0  0  0  0  0  0  0  0  0  0  0
   35.2114   37.7231   51.3356 H   0  0  0  0  0  0  0  0  0  0  0  0
   33.5526   36.1551   52.2535 H   0  0  0  0  0  0  0  0  0  0  0  0
   32.8208   36.3625   54.5931 H   0  0  0  0  0  0  0  0  0  0  0  0
  1  2  1  0  0  0  0
  1 20  1  0  0  0  0
  1 21  1  0  0  0  0
  2 19  2  0  0  0  0
  2  3  1  0  0  0  0
  3  4  2  0  0  0  0
  4  5  1  0  0  0  0
  4 11  1  0  0  0  0
  5  6  1  0  0  0  0
  6  7  1  0  0  0  0
  6 22  1  0  0  0  0
  6 23  1  0  0  0  0
  7  8  1  0  0  0  0
  7  9  1  0  0  0  0
  7 10  1  0  0  0  0
 11 12  2  0  0  0  0
 11 24  1  0  0  0  0
 12 13  1  0  0  0  0
 12 19  1  0  0  0  0
 13 18  2  0  0  0  0
 13 14  1  0  0  0  0
 14 15  2  0  0  0  0
 14 25  1  0  0  0  0
 15 16  1  0  0  0  0
 15 26  1  0  0  0  0
 16 17  2  0  0  0  0
 16 27  1  0  0  0  0
 17 18  1  0  0  0  0
 17 28  1  0  0  0  0
 18 29  1  0  0  0  0
M  END
$$$$
