ZINC000000021695      none
 OpenBabel11202420153D

 32 34  0  0  1  0  0  0  0  0999 V2000
   28.2891   35.6771   64.2672 O   0  0  0  0  0  0  0  0  0  0  0  0
   29.4112   36.0329   64.5593 C   0  0  0  0  0  0  0  0  0  0  0  0
   29.7432   36.9390   65.4945 N   0  0  0  0  0  0  0  0  0  0  0  0
   31.1233   37.1229   65.5854 C   0  0  0  0  0  0  0  0  0  0  0  0
   31.8794   37.9540   66.4099 C   0  0  0  0  0  0  0  0  0  0  0  0
   31.1922   38.8481   67.4098 C   0  0  0  0  0  0  0  0  0  0  0  0
   29.8076   38.6675   67.3227 F   0  0  0  0  0  0  0  0  0  0  0  0
   31.5066   40.1833   67.1348 F   0  0  0  0  0  0  0  0  0  0  0  0
   31.6245   38.5234   68.7001 F   0  0  0  0  0  0  0  0  0  0  0  0
   33.2556   37.9560   66.3166 C   0  0  0  0  0  0  0  0  0  0  0  0
   33.8956   37.1391   65.4023 C   0  0  0  0  0  0  0  0  0  0  0  0
   33.1513   36.3148   64.5765 C   0  0  0  0  0  0  0  0  0  0  0  0
   31.7776   36.3108   64.6679 C   0  0  0  0  0  0  0  0  0  0  0  0
   30.7007   35.5483   63.9311 C   0  0  1  0  0  0  0  0  0  0  0  0
   30.8490   34.1427   64.1418 O   0  0  0  0  0  0  0  0  0  0  0  0
   30.7390   35.8699   62.4593 C   0  0  0  0  0  0  0  0  0  0  0  0
   30.8513   34.8517   61.5319 C   0  0  0  0  0  0  0  0  0  0  0  0
   30.8822   35.1462   60.1806 C   0  0  0  0  0  0  0  0  0  0  0  0
   31.0166   33.8648   59.0171 Cl  0  0  0  0  0  0  0  0  0  0  0  0
   30.8104   36.4611   59.7552 C   0  0  0  0  0  0  0  0  0  0  0  0
   30.7034   37.4819   60.6794 C   0  0  0  0  0  0  0  0  0  0  0  0
   30.6675   37.1884   62.0349 C   0  0  0  0  0  0  0  0  0  0  0  0
   30.5617   38.1917   62.9459 O   0  0  0  0  0  0  0  0  0  0  0  0
   29.0975   37.4107   66.0434 H   0  0  0  0  0  0  0  0  0  0  0  0
   33.8366   38.5991   66.9610 H   0  0  0  0  0  0  0  0  0  0  0  0
   34.9733   37.1442   65.3331 H   0  0  0  0  0  0  0  0  0  0  0  0
   33.6475   35.6753   63.8615 H   0  0  0  0  0  0  0  0  0  0  0  0
   30.1835   33.6050   63.6912 H   0  0  0  0  0  0  0  0  0  0  0  0
   30.9112   33.8253   61.8621 H   0  0  0  0  0  0  0  0  0  0  0  0
   30.8385   36.6892   58.7000 H   0  0  0  0  0  0  0  0  0  0  0  0
   30.6474   38.5081   60.3470 H   0  0  0  0  0  0  0  0  0  0  0  0
   30.5440   37.8889   63.8641 H   0  0  0  0  0  0  0  0  0  0  0  0
  1  2  2  0  0  0  0
  2 14  1  0  0  0  0
  2  3  1  0  0  0  0
  3  4  1  0  0  0  0
  3 24  1  0  0  0  0
  4 13  2  0  0  0  0
  4  5  1  0  0  0  0
  5  6  1  0  0  0  0
  5 10  2  0  0  0  0
  6  7  1  0  0  0  0
  6  8  1  0  0  0  0
  6  9  1  0  0  0  0
 10 11  1  0  0  0  0
 10 25  1  0  0  0  0
 11 12  2  0  0  0  0
 11 26  1  0  0  0  0
 12 13  1  0  0  0  0
 12 27  1  0  0  0  0
 13 14  1  0  0  0  0
 14 15  1  1  0  0  0
 14 16  1  0  0  0  0
 15 28  1  0  0  0  0
 16 22  2  0  0  0  0
 16 17  1  0  0  0  0
 17 18  2  0  0  0  0
 17 29  1  0  0  0  0
 18 19  1  0  0  0  0
 18 20  1  0  0  0  0
 20 21  2  0  0  0  0
 20 30  1  0  0  0  0
 21 22  1  0  0  0  0
 21 31  1  0  0  0  0
 22 23  1  0  0  0  0
 23 32  1  0  0  0  0
M  END
$$$$
