ZINC000000052126      none
 OpenBabel11202420153D

 31 32  0  0  0  0  0  0  0  0999 V2000
   34.4078   32.0395   53.9807 C   0  0  0  0  0  0  0  0  0  0  0  0
   34.4067   33.0968   55.0546 C   0  0  0  0  0  0  0  0  0  0  0  0
   35.4496   33.4644   55.5414 O   0  0  0  0  0  0  0  0  0  0  0  0
   33.2462   33.6306   55.4705 O   0  0  0  0  0  0  0  0  0  0  0  0
   33.2814   34.9116   55.9122 C   0  0  0  0  0  0  0  0  0  0  0  0
   33.7007   35.9265   55.0596 C   0  0  0  0  0  0  0  0  0  0  0  0
   33.7422   37.2228   55.4870 C   0  0  0  0  0  0  0  0  0  0  0  0
   33.3666   37.5463   56.7975 C   0  0  0  0  0  0  0  0  0  0  0  0
   33.3996   38.9329   57.2694 C   0  0  0  0  0  0  0  0  0  0  0  0
   33.8512   40.0486   56.3626 C   0  0  0  0  0  0  0  0  0  0  0  0
   33.0176   39.1846   58.5483 C   0  0  0  0  0  0  0  0  0  0  0  0
   32.5997   38.1224   59.3763 C   0  0  0  0  0  0  0  0  0  0  0  0
   32.2597   38.3601   60.5215 O   0  0  0  0  0  0  0  0  0  0  0  0
   32.5677   36.8555   58.9334 O   0  0  0  0  0  0  0  0  0  0  0  0
   32.9338   36.5400   57.6762 C   0  0  0  0  0  0  0  0  0  0  0  0
   32.8936   35.2079   57.2291 C   0  0  0  0  0  0  0  0  0  0  0  0
   32.4522   34.1391   58.1285 C   0  0  0  0  0  0  0  0  0  0  0  0
   31.2534   33.2993   57.7696 C   0  0  0  0  0  0  0  0  0  0  0  0
   33.0517   33.9301   59.1624 O   0  0  0  0  0  0  0  0  0  0  0  0
   33.3833   31.8398   53.6663 H   0  0  0  0  0  0  0  0  0  0  0  0
   34.9881   32.3893   53.1269 H   0  0  0  0  0  0  0  0  0  0  0  0
   34.8526   31.1245   54.3720 H   0  0  0  0  0  0  0  0  0  0  0  0
   33.9969   35.6874   54.0489 H   0  0  0  0  0  0  0  0  0  0  0  0
   34.0701   38.0011   54.8138 H   0  0  0  0  0  0  0  0  0  0  0  0
   34.9286   40.1823   56.4598 H   0  0  0  0  0  0  0  0  0  0  0  0
   33.6079   39.7985   55.3299 H   0  0  0  0  0  0  0  0  0  0  0  0
   33.3438   40.9719   56.6420 H   0  0  0  0  0  0  0  0  0  0  0  0
   33.0336   40.1950   58.9297 H   0  0  0  0  0  0  0  0  0  0  0  0
   30.9039   33.5719   56.7738 H   0  0  0  0  0  0  0  0  0  0  0  0
   31.5316   32.2454   57.7812 H   0  0  0  0  0  0  0  0  0  0  0  0
   30.4579   33.4731   58.4941 H   0  0  0  0  0  0  0  0  0  0  0  0
  1  2  1  0  0  0  0
  1 20  1  0  0  0  0
  1 21  1  0  0  0  0
  1 22  1  0  0  0  0
  2  3  2  0  0  0  0
  2  4  1  0  0  0  0
  4  5  1  0  0  0  0
  5 16  2  0  0  0  0
  5  6  1  0  0  0  0
  6  7  2  0  0  0  0
  6 23  1  0  0  0  0
  7  8  1  0  0  0  0
  7 24  1  0  0  0  0
  8 15  2  0  0  0  0
  8  9  1  0  0  0  0
  9 10  1  0  0  0  0
  9 11  2  0  0  0  0
 10 25  1  0  0  0  0
 10 26  1  0  0  0  0
 10 27  1  0  0  0  0
 11 12  1  0  0  0  0
 11 28  1  0  0  0  0
 12 13  2  0  0  0  0
 12 14  1  0  0  0  0
 14 15  1  0  0  0  0
 15 16  1  0  0  0  0
 16 17  1  0  0  0  0
 17 18  1  0  0  0  0
 17 19  2  0  0  0  0
 18 29  1  0  0  0  0
 18 30  1  0  0  0  0
 18 31  1  0  0  0  0
M  END
$$$$
