ZINC000000034801      none
 OpenBabel11202420153D

 43 45  0  0  0  0  0  0  0  0999 V2000
   33.0713   37.8102   55.5534 C   0  0  0  0  0  0  0  0  0  0  0  0
   33.7258   37.1584   56.6437 O   0  0  0  0  0  0  0  0  0  0  0  0
   32.9326   36.6381   57.6181 C   0  0  0  0  0  0  0  0  0  0  0  0
   32.5774   37.4115   58.7049 C   0  0  0  0  0  0  0  0  0  0  0  0
   31.7608   36.8719   59.7068 C   0  0  0  0  0  0  0  0  0  0  0  0
   31.3798   37.6886   60.8654 C   0  0  0  0  0  0  0  0  0  0  0  0
   31.7217   37.2924   62.1160 C   0  0  0  0  0  0  0  0  0  0  0  0
   32.3781   35.9764   62.4662 C   0  0  0  0  0  0  0  0  0  0  0  0
   32.1599   35.8053   63.9847 C   0  0  0  0  0  0  0  0  0  0  0  0
   32.0334   37.2621   64.4790 C   0  0  0  0  0  0  0  0  0  0  0  0
   31.5262   38.0449   63.2893 C   0  0  0  0  0  0  0  0  0  0  0  0
   31.0248   39.1502   63.3387 O   0  0  0  0  0  0  0  0  0  0  0  0
   31.3093   35.5503   59.6000 C   0  0  0  0  0  0  0  0  0  0  0  0
   31.6686   34.7864   58.5122 C   0  0  0  0  0  0  0  0  0  0  0  0
   32.4786   35.3228   57.5192 C   0  0  0  0  0  0  0  0  0  0  0  0
   32.8293   34.5645   56.4489 O   0  0  0  0  0  0  0  0  0  0  0  0
   34.0303   33.7986   56.5620 C   0  0  0  0  0  0  0  0  0  0  0  0
   34.2561   33.0268   55.2875 C   0  0  0  0  0  0  0  0  0  0  0  0
   34.9203   31.8149   55.3217 C   0  0  0  0  0  0  0  0  0  0  0  0
   35.1231   31.1046   54.1532 C   0  0  0  0  0  0  0  0  0  0  0  0
   34.6707   31.6113   52.9493 C   0  0  0  0  0  0  0  0  0  0  0  0
   34.0112   32.8255   52.9143 C   0  0  0  0  0  0  0  0  0  0  0  0
   33.8038   33.5333   54.0835 C   0  0  0  0  0  0  0  0  0  0  0  0
   32.4135   37.1025   55.0489 H   0  0  0  0  0  0  0  0  0  0  0  0
   32.4835   38.6471   55.9305 H   0  0  0  0  0  0  0  0  0  0  0  0
   33.8174   38.1784   54.8493 H   0  0  0  0  0  0  0  0  0  0  0  0
   32.9287   38.4298   58.7827 H   0  0  0  0  0  0  0  0  0  0  0  0
   30.8270   38.6053   60.7216 H   0  0  0  0  0  0  0  0  0  0  0  0
   31.9031   35.1603   61.9217 H   0  0  0  0  0  0  0  0  0  0  0  0
   33.4433   36.0128   62.2378 H   0  0  0  0  0  0  0  0  0  0  0  0
   31.2434   35.2495   64.1828 H   0  0  0  0  0  0  0  0  0  0  0  0
   33.0160   35.3115   64.4445 H   0  0  0  0  0  0  0  0  0  0  0  0
   31.3238   37.3209   65.3043 H   0  0  0  0  0  0  0  0  0  0  0  0
   33.0070   37.6418   64.7889 H   0  0  0  0  0  0  0  0  0  0  0  0
   30.6793   35.1306   60.3704 H   0  0  0  0  0  0  0  0  0  0  0  0
   31.3162   33.7690   58.4285 H   0  0  0  0  0  0  0  0  0  0  0  0
   34.8731   34.4678   56.7356 H   0  0  0  0  0  0  0  0  0  0  0  0
   33.9407   33.1033   57.3967 H   0  0  0  0  0  0  0  0  0  0  0  0
   35.2776   31.4213   56.2618 H   0  0  0  0  0  0  0  0  0  0  0  0
   35.6387   30.1561   54.1804 H   0  0  0  0  0  0  0  0  0  0  0  0
   34.8331   31.0584   52.0357 H   0  0  0  0  0  0  0  0  0  0  0  0
   33.6582   33.2215   51.9735 H   0  0  0  0  0  0  0  0  0  0  0  0
   33.2888   34.4821   54.0562 H   0  0  0  0  0  0  0  0  0  0  0  0
  1  2  1  0  0  0  0
  1 24  1  0  0  0  0
  1 25  1  0  0  0  0
  1 26  1  0  0  0  0
  2  3  1  0  0  0  0
  3 15  2  0  0  0  0
  3  4  1  0  0  0  0
  4  5  2  0  0  0  0
  4 27  1  0  0  0  0
  5  6  1  0  0  0  0
  5 13  1  0  0  0  0
  6  7  2  0  0  0  0
  6 28  1  0  0  0  0
  7 11  1  0  0  0  0
  7  8  1  0  0  0  0
  8  9  1  0  0  0  0
  8 29  1  0  0  0  0
  8 30  1  0  0  0  0
  9 10  1  0  0  0  0
  9 31  1  0  0  0  0
  9 32  1  0  0  0  0
 10 11  1  0  0  0  0
 10 33  1  0  0  0  0
 10 34  1  0  0  0  0
 11 12  2  0  0  0  0
 13 14  2  0  0  0  0
 13 35  1  0  0  0  0
 14 15  1  0  0  0  0
 14 36  1  0  0  0  0
 15 16  1  0  0  0  0
 16 17  1  0  0  0  0
 17 18  1  0  0  0  0
 17 37  1  0  0  0  0
 17 38  1  0  0  0  0
 18 23  2  0  0  0  0
 18 19  1  0  0  0  0
 19 20  2  0  0  0  0
 19 39  1  0  0  0  0
 20 21  1  0  0  0  0
 20 40  1  0  0  0  0
 21 22  2  0  0  0  0
 21 41  1  0  0  0  0
 22 23  1  0  0  0  0
 22 42  1  0  0  0  0
 23 43  1  0  0  0  0
M  END
$$$$
