ZINC000000030756      none
 OpenBabel11202420163D

 34 35  0  0  0  0  0  0  0  0999 V2000
   32.7069   41.4787   67.0405 N   0  0  0  0  0  0  0  0  0  0  0  0
   31.7777   40.1315   67.2933 S   0  0  0  0  0  0  0  0  0  0  0  0
   30.5080   40.5961   67.7305 O   0  0  0  0  0  0  0  0  0  0  0  0
   32.5763   39.2287   68.0459 O   0  0  0  0  0  0  0  0  0  0  0  0
   31.5172   39.3754   65.7232 C   0  0  0  0  0  0  0  0  0  0  0  0
   30.4234   39.7346   64.9574 C   0  0  0  0  0  0  0  0  0  0  0  0
   30.2164   39.1436   63.7264 C   0  0  0  0  0  0  0  0  0  0  0  0
   31.1080   38.1876   63.2580 C   0  0  0  0  0  0  0  0  0  0  0  0
   30.9009   37.5868   62.0115 N   0  0  0  0  0  0  0  0  0  0  0  0
   31.9537   37.1639   61.2839 C   0  0  0  0  0  0  0  0  0  0  0  0
   33.0806   37.3043   61.7098 O   0  0  0  0  0  0  0  0  0  0  0  0
   31.7307   36.5169   59.9413 C   0  0  0  0  0  0  0  0  0  0  0  0
   32.4256   37.3223   58.8739 C   0  0  0  0  0  0  0  0  0  0  0  0
   32.9129   36.6951   57.7424 C   0  0  0  0  0  0  0  0  0  0  0  0
   33.5453   37.4342   56.7604 C   0  0  0  0  0  0  0  0  0  0  0  0
   33.7006   38.8002   56.9152 C   0  0  0  0  0  0  0  0  0  0  0  0
   34.5016   39.7280   55.6859 Cl  0  0  0  0  0  0  0  0  0  0  0  0
   33.2177   39.4265   58.0505 C   0  0  0  0  0  0  0  0  0  0  0  0
   32.5806   38.6872   59.0292 C   0  0  0  0  0  0  0  0  0  0  0  0
   32.2024   37.8249   64.0320 C   0  0  0  0  0  0  0  0  0  0  0  0
   32.4070   38.4237   65.2597 C   0  0  0  0  0  0  0  0  0  0  0  0
   32.9950   41.7077   66.1430 H   0  0  0  0  0  0  0  0  0  0  0  0
   32.9629   42.0390   67.7898 H   0  0  0  0  0  0  0  0  0  0  0  0
   29.7303   40.4782   65.3223 H   0  0  0  0  0  0  0  0  0  0  0  0
   29.3618   39.4247   63.1288 H   0  0  0  0  0  0  0  0  0  0  0  0
   29.9996   37.4746   61.6708 H   0  0  0  0  0  0  0  0  0  0  0  0
   30.6621   36.4784   59.7296 H   0  0  0  0  0  0  0  0  0  0  0  0
   32.1352   35.5048   59.9539 H   0  0  0  0  0  0  0  0  0  0  0  0
   32.7953   35.6282   57.6237 H   0  0  0  0  0  0  0  0  0  0  0  0
   33.9220   36.9448   55.8745 H   0  0  0  0  0  0  0  0  0  0  0  0
   33.3390   40.4927   58.1722 H   0  0  0  0  0  0  0  0  0  0  0  0
   32.2040   39.1760   59.9156 H   0  0  0  0  0  0  0  0  0  0  0  0
   32.8955   37.0787   63.6724 H   0  0  0  0  0  0  0  0  0  0  0  0
   33.2605   38.1451   65.8602 H   0  0  0  0  0  0  0  0  0  0  0  0
  1  2  1  0  0  0  0
  1 22  1  0  0  0  0
  1 23  1  0  0  0  0
  2  3  2  0  0  0  0
  2  4  2  0  0  0  0
  2  5  1  0  0  0  0
  5 21  2  0  0  0  0
  5  6  1  0  0  0  0
  6  7  2  0  0  0  0
  6 24  1  0  0  0  0
  7  8  1  0  0  0  0
  7 25  1  0  0  0  0
  8  9  1  0  0  0  0
  8 20  2  0  0  0  0
  9 10  1  0  0  0  0
  9 26  1  0  0  0  0
 10 11  2  0  0  0  0
 10 12  1  0  0  0  0
 12 13  1  0  0  0  0
 12 27  1  0  0  0  0
 12 28  1  0  0  0  0
 13 19  2  0  0  0  0
 13 14  1  0  0  0  0
 14 15  2  0  0  0  0
 14 29  1  0  0  0  0
 15 16  1  0  0  0  0
 15 30  1  0  0  0  0
 16 17  1  0  0  0  0
 16 18  2  0  0  0  0
 18 19  1  0  0  0  0
 18 31  1  0  0  0  0
 19 32  1  0  0  0  0
 20 21  1  0  0  0  0
 20 33  1  0  0  0  0
 21 34  1  0  0  0  0
M  END
$$$$
