ZINC000000051898      none
 OpenBabel11202420153D

 22 23  0  0  0  0  0  0  0  0999 V2000
   34.8138   32.5583   55.7197 O   0  0  0  0  0  0  0  0  0  0  0  0
   34.2526   33.2023   54.8578 C   0  0  0  0  0  0  0  0  0  0  0  0
   33.7706   34.6058   55.1431 C   0  0  0  0  0  0  0  0  0  0  0  0
   33.7514   35.3481   53.8734 N   0  0  0  0  0  0  0  0  0  0  0  0
   34.1999   36.6698   53.8090 C   0  0  0  0  0  0  0  0  0  0  0  0
   34.7687   37.1558   52.6384 C   0  0  0  0  0  0  0  0  0  0  0  0
   35.2069   38.4639   52.5768 C   0  0  0  0  0  0  0  0  0  0  0  0
   35.0889   39.2871   53.6818 C   0  0  0  0  0  0  0  0  0  0  0  0
   34.5280   38.8051   54.8503 C   0  0  0  0  0  0  0  0  0  0  0  0
   34.0833   37.4994   54.9174 C   0  0  0  0  0  0  0  0  0  0  0  0
   33.2766   34.6997   52.7421 C   0  0  0  0  0  0  0  0  0  0  0  0
   33.4190   33.4187   52.6304 N   0  0  0  0  0  0  0  0  0  0  0  0
   34.0505   32.6739   53.6320 N   0  0  0  0  0  0  0  0  0  0  0  0
   32.7661   34.5717   55.5650 H   0  0  0  0  0  0  0  0  0  0  0  0
   34.4482   35.0927   55.8444 H   0  0  0  0  0  0  0  0  0  0  0  0
   34.8649   36.5122   51.7764 H   0  0  0  0  0  0  0  0  0  0  0  0
   35.6455   38.8435   51.6658 H   0  0  0  0  0  0  0  0  0  0  0  0
   35.4359   40.3086   53.6321 H   0  0  0  0  0  0  0  0  0  0  0  0
   34.4379   39.4504   55.7116 H   0  0  0  0  0  0  0  0  0  0  0  0
   33.6456   37.1235   55.8304 H   0  0  0  0  0  0  0  0  0  0  0  0
   32.7907   35.2621   51.9584 H   0  0  0  0  0  0  0  0  0  0  0  0
   34.3455   31.7692   53.4442 H   0  0  0  0  0  0  0  0  0  0  0  0
  1  2  2  0  0  0  0
  2 13  1  0  0  0  0
  2  3  1  0  0  0  0
  3  4  1  0  0  0  0
  3 14  1  0  0  0  0
  3 15  1  0  0  0  0
  4  5  1  0  0  0  0
  4 11  1  0  0  0  0
  5 10  2  0  0  0  0
  5  6  1  0  0  0  0
  6  7  2  0  0  0  0
  6 16  1  0  0  0  0
  7  8  1  0  0  0  0
  7 17  1  0  0  0  0
  8  9  2  0  0  0  0
  8 18  1  0  0  0  0
  9 10  1  0  0  0  0
  9 19  1  0  0  0  0
 10 20  1  0  0  0  0
 11 12  2  0  0  0  0
 11 21  1  0  0  0  0
 12 13  1  0  0  0  0
 13 22  1  0  0  0  0
M  END
$$$$
