ZINC000000026876      none
 OpenBabel11202420153D

 36 39  0  0  0  0  0  0  0  0999 V2000
   32.9258   36.3549   56.8688 F   0  0  0  0  0  0  0  0  0  0  0  0
   32.6962   36.8809   58.0918 C   0  0  0  0  0  0  0  0  0  0  0  0
   32.6730   38.2337   58.2620 C   0  0  0  0  0  0  0  0  0  0  0  0
   32.4381   38.7948   59.5142 C   0  0  0  0  0  0  0  0  0  0  0  0
   32.2144   38.0058   60.6026 C   0  0  0  0  0  0  0  0  0  0  0  0
   32.2202   36.6113   60.4618 C   0  0  0  0  0  0  0  0  0  0  0  0
   31.9914   35.7582   61.5681 C   0  0  0  0  0  0  0  0  0  0  0  0
   31.7535   36.2750   62.8329 N   0  0  0  0  0  0  0  0  0  0  0  0
   32.8116   35.8743   63.7739 C   0  0  0  0  0  0  0  0  0  0  0  0
   32.7068   36.7493   65.0233 C   0  0  0  0  0  0  0  0  0  0  0  0
   31.2890   36.7475   65.5348 C   0  0  0  0  0  0  0  0  0  0  0  0
   31.0536   37.1749   66.8330 C   0  0  0  0  0  0  0  0  0  0  0  0
   29.7691   37.1970   67.3377 C   0  0  0  0  0  0  0  0  0  0  0  0
   28.7110   36.7961   66.5432 C   0  0  0  0  0  0  0  0  0  0  0  0
   28.9450   36.3639   65.2536 C   0  0  0  0  0  0  0  0  0  0  0  0
   30.2356   36.3389   64.7454 C   0  0  0  0  0  0  0  0  0  0  0  0
   30.4414   35.8542   63.3342 C   0  0  0  0  0  0  0  0  0  0  0  0
   32.0070   34.3906   61.3461 C   0  0  0  0  0  0  0  0  0  0  0  0
   32.2482   33.9039   60.0682 C   0  0  0  0  0  0  0  0  0  0  0  0
   32.4640   34.7048   59.0512 N   0  0  0  0  0  0  0  0  0  0  0  0
   32.4635   36.0354   59.1924 C   0  0  0  0  0  0  0  0  0  0  0  0
   32.8479   38.8794   57.4142 H   0  0  0  0  0  0  0  0  0  0  0  0
   32.4330   39.8692   59.6244 H   0  0  0  0  0  0  0  0  0  0  0  0
   32.0338   38.4530   61.5689 H   0  0  0  0  0  0  0  0  0  0  0  0
   33.7875   36.0150   63.3092 H   0  0  0  0  0  0  0  0  0  0  0  0
   32.6843   34.8272   64.0483 H   0  0  0  0  0  0  0  0  0  0  0  0
   33.0012   37.7692   64.7767 H   0  0  0  0  0  0  0  0  0  0  0  0
   33.3701   36.3574   65.7944 H   0  0  0  0  0  0  0  0  0  0  0  0
   31.8796   37.4923   67.4521 H   0  0  0  0  0  0  0  0  0  0  0  0
   29.5906   37.5307   68.3492 H   0  0  0  0  0  0  0  0  0  0  0  0
   27.7038   36.8173   66.9324 H   0  0  0  0  0  0  0  0  0  0  0  0
   28.1182   36.0476   64.6348 H   0  0  0  0  0  0  0  0  0  0  0  0
   30.3813   34.7660   63.3152 H   0  0  0  0  0  0  0  0  0  0  0  0
   29.6622   36.2682   62.6944 H   0  0  0  0  0  0  0  0  0  0  0  0
   31.8328   33.7064   62.1633 H   0  0  0  0  0  0  0  0  0  0  0  0
   32.2581   32.8361   59.9066 H   0  0  0  0  0  0  0  0  0  0  0  0
  1  2  1  0  0  0  0
  2 21  2  0  0  0  0
  2  3  1  0  0  0  0
  3  4  2  0  0  0  0
  3 22  1  0  0  0  0
  4  5  1  0  0  0  0
  4 23  1  0  0  0  0
  5  6  2  0  0  0  0
  5 24  1  0  0  0  0
  6 21  1  0  0  0  0
  6  7  1  0  0  0  0
  7  8  1  0  0  0  0
  7 18  2  0  0  0  0
  8 17  1  0  0  0  0
  8  9  1  0  0  0  0
  9 10  1  0  0  0  0
  9 25  1  0  0  0  0
  9 26  1  0  0  0  0
 10 11  1  0  0  0  0
 10 27  1  0  0  0  0
 10 28  1  0  0  0  0
 11 16  2  0  0  0  0
 11 12  1  0  0  0  0
 12 13  2  0  0  0  0
 12 29  1  0  0  0  0
 13 14  1  0  0  0  0
 13 30  1  0  0  0  0
 14 15  2  0  0  0  0
 14 31  1  0  0  0  0
 15 16  1  0  0  0  0
 15 32  1  0  0  0  0
 16 17  1  0  0  0  0
 17 33  1  0  0  0  0
 17 34  1  0  0  0  0
 18 19  1  0  0  0  0
 18 35  1  0  0  0  0
 19 20  2  0  0  0  0
 19 36  1  0  0  0  0
 20 21  1  0  0  0  0
M  END
$$$$
