ZINC000000027320      none
 OpenBabel11202420153D

 18 19  0  0  0  0  0  0  0  0999 V2000
   34.5079   37.4990   53.9358 C   0  0  0  0  0  0  0  0  0  0  0  0
   34.6465   38.8311   54.2812 C   0  0  0  0  0  0  0  0  0  0  0  0
   34.2796   39.2618   55.5402 C   0  0  0  0  0  0  0  0  0  0  0  0
   33.7690   38.3524   56.4635 C   0  0  0  0  0  0  0  0  0  0  0  0
   33.3733   38.8101   57.8193 C   0  0  0  0  0  0  0  0  0  0  0  0
   32.8449   38.0259   58.8612 C   0  0  0  0  0  0  0  0  0  0  0  0
   32.6428   38.8508   59.8617 N   0  0  0  0  0  0  0  0  0  0  0  0
   33.0084   40.0318   59.5098 N   0  0  0  0  0  0  0  0  0  0  0  0
   32.9582   40.8149   60.0801 H   0  0  0  0  0  0  0  0  0  0  0  0
   33.4436   40.0391   58.2999 N   0  0  0  0  0  0  0  0  0  0  0  0
   33.6364   37.0109   56.1122 C   0  0  0  0  0  0  0  0  0  0  0  0
   34.0010   36.5918   54.8486 C   0  0  0  0  0  0  0  0  0  0  0  0
   34.7961   37.1660   52.9496 H   0  0  0  0  0  0  0  0  0  0  0  0
   35.0423   39.5354   53.5645 H   0  0  0  0  0  0  0  0  0  0  0  0
   34.3879   40.3023   55.8089 H   0  0  0  0  0  0  0  0  0  0  0  0
   32.6430   36.9651   58.8402 H   0  0  0  0  0  0  0  0  0  0  0  0
   33.2453   36.3010   56.8258 H   0  0  0  0  0  0  0  0  0  0  0  0
   33.8941   35.5528   54.5736 H   0  0  0  0  0  0  0  0  0  0  0  0
  1 12  2  0  0  0  0
  1  2  1  0  0  0  0
  1 13  1  0  0  0  0
  2  3  2  0  0  0  0
  2 14  1  0  0  0  0
  3  4  1  0  0  0  0
  3 15  1  0  0  0  0
  4  5  1  0  0  0  0
  4 11  2  0  0  0  0
  5 10  2  0  0  0  0
  5  6  1  0  0  0  0
  6  7  2  0  0  0  0
  6 16  1  0  0  0  0
  7  8  1  0  0  0  0
  8  9  1  0  0  0  0
  8 10  1  0  0  0  0
 11 12  1  0  0  0  0
 11 17  1  0  0  0  0
 12 18  1  0  0  0  0
M  END
$$$$
