ZINC000000041512      none
 OpenBabel11202420153D

 36 37  0  0  1  0  0  0  0  0999 V2000
   30.6175   38.7694   63.5958 C   0  0  0  0  0  0  0  0  0  0  0  0
   30.1514   37.3898   63.1266 C   0  0  0  0  0  0  0  0  0  0  0  0
   30.8872   36.3065   63.9178 C   0  0  1  0  0  0  0  0  0  0  0  0
   31.9606   36.4026   63.7539 H   0  0  0  0  0  0  0  0  0  0  0  0
   30.6027   36.4574   65.3101 O   0  0  0  0  0  0  0  0  0  0  0  0
   30.4212   34.9269   63.4487 C   0  0  0  0  0  0  0  0  0  0  0  0
   31.1103   34.5755   62.2046 N   0  0  0  0  0  0  0  0  0  0  0  0
   31.5051   35.5847   61.3222 N   0  0  0  0  0  0  0  0  0  0  0  0
   31.8506   35.3244   60.1059 C   0  0  0  0  0  0  0  0  0  0  0  0
   32.2910   36.4230   59.2261 C   0  0  0  0  0  0  0  0  0  0  0  0
   32.6736   36.1567   57.9092 C   0  0  0  0  0  0  0  0  0  0  0  0
   33.0798   37.1892   57.0903 C   0  0  0  0  0  0  0  0  0  0  0  0
   33.1191   38.4863   57.5739 C   0  0  0  0  0  0  0  0  0  0  0  0
   33.6386   39.7794   56.5387 Cl  0  0  0  0  0  0  0  0  0  0  0  0
   32.7462   38.7563   58.8801 C   0  0  0  0  0  0  0  0  0  0  0  0
   32.3329   37.7336   59.7078 C   0  0  0  0  0  0  0  0  0  0  0  0
   31.8055   33.9187   59.5679 C   0  0  0  0  0  0  0  0  0  0  0  0
   32.1458   32.9285   60.6838 C   0  0  0  0  0  0  0  0  0  0  0  0
   31.3533   33.2825   61.9178 C   0  0  0  0  0  0  0  0  0  0  0  0
   30.9378   32.4073   62.6478 O   0  0  0  0  0  0  0  0  0  0  0  0
   30.0933   39.5411   63.0322 H   0  0  0  0  0  0  0  0  0  0  0  0
   30.4004   38.8845   64.6579 H   0  0  0  0  0  0  0  0  0  0  0  0
   31.6908   38.8655   63.4320 H   0  0  0  0  0  0  0  0  0  0  0  0
   29.0781   37.2936   63.2905 H   0  0  0  0  0  0  0  0  0  0  0  0
   30.3686   37.2747   62.0646 H   0  0  0  0  0  0  0  0  0  0  0  0
   30.8721   37.3110   65.6763 H   0  0  0  0  0  0  0  0  0  0  0  0
   30.6523   34.1857   64.2139 H   0  0  0  0  0  0  0  0  0  0  0  0
   29.3453   34.9464   63.2751 H   0  0  0  0  0  0  0  0  0  0  0  0
   32.6473   35.1450   57.5321 H   0  0  0  0  0  0  0  0  0  0  0  0
   33.3719   36.9853   56.0707 H   0  0  0  0  0  0  0  0  0  0  0  0
   32.7793   39.7699   59.2513 H   0  0  0  0  0  0  0  0  0  0  0  0
   32.0427   37.9454   60.7263 H   0  0  0  0  0  0  0  0  0  0  0  0
   32.5292   33.8166   58.7593 H   0  0  0  0  0  0  0  0  0  0  0  0
   30.8056   33.7082   59.1886 H   0  0  0  0  0  0  0  0  0  0  0  0
   33.2112   32.9831   60.9070 H   0  0  0  0  0  0  0  0  0  0  0  0
   31.8915   31.9176   60.3651 H   0  0  0  0  0  0  0  0  0  0  0  0
  1  2  1  0  0  0  0
  1 21  1  0  0  0  0
  1 22  1  0  0  0  0
  1 23  1  0  0  0  0
  2  3  1  0  0  0  0
  2 24  1  0  0  0  0
  2 25  1  0  0  0  0
  3  4  1  6  0  0  0
  3  5  1  0  0  0  0
  3  6  1  0  0  0  0
  5 26  1  0  0  0  0
  6  7  1  0  0  0  0
  6 27  1  0  0  0  0
  6 28  1  0  0  0  0
  7 19  1  0  0  0  0
  7  8  1  0  0  0  0
  8  9  2  0  0  0  0
  9 10  1  0  0  0  0
  9 17  1  0  0  0  0
 10 16  2  0  0  0  0
 10 11  1  0  0  0  0
 11 12  2  0  0  0  0
 11 29  1  0  0  0  0
 12 13  1  0  0  0  0
 12 30  1  0  0  0  0
 13 14  1  0  0  0  0
 13 15  2  0  0  0  0
 15 16  1  0  0  0  0
 15 31  1  0  0  0  0
 16 32  1  0  0  0  0
 17 18  1  0  0  0  0
 17 33  1  0  0  0  0
 17 34  1  0  0  0  0
 18 19  1  0  0  0  0
 18 35  1  0  0  0  0
 18 36  1  0  0  0  0
 19 20  2  0  0  0  0
M  END
$$$$
