ZINC000000002247      none
 OpenBabel11202420153D

 18 18  0  0  0  0  0  0  0  0999 V2000
   29.1984   37.6334   62.7880 C   0  0  0  0  0  0  0  0  0  0  0  0
   30.6745   37.9876   62.9787 C   0  0  0  0  0  0  0  0  0  0  0  0
   30.9112   38.6124   64.3551 C   0  0  0  0  0  0  0  0  0  0  0  0
   31.5727   36.7433   62.7743 C   0  0  0  0  0  0  0  0  0  0  0  0
   31.9373   36.8798   61.3855 O   0  0  0  0  0  0  0  0  0  0  0  0
   31.8439   38.1852   61.0633 C   0  0  0  0  0  0  0  0  0  0  0  0
   32.4350   38.7261   59.9479 N   0  0  0  0  0  0  0  0  0  0  0  0
   31.1447   38.8841   61.9036 N   0  0  0  0  0  0  0  0  0  0  0  0
   28.9110   36.8714   63.5125 H   0  0  0  0  0  0  0  0  0  0  0  0
   28.5887   38.5246   62.9370 H   0  0  0  0  0  0  0  0  0  0  0  0
   29.0437   37.2519   61.7788 H   0  0  0  0  0  0  0  0  0  0  0  0
   31.9546   38.9156   64.4419 H   0  0  0  0  0  0  0  0  0  0  0  0
   30.2684   39.4846   64.4736 H   0  0  0  0  0  0  0  0  0  0  0  0
   30.6794   37.8820   65.1303 H   0  0  0  0  0  0  0  0  0  0  0  0
   31.0121   35.8238   62.9433 H   0  0  0  0  0  0  0  0  0  0  0  0
   32.4528   36.7861   63.4160 H   0  0  0  0  0  0  0  0  0  0  0  0
   32.9483   38.1616   59.3490 H   0  0  0  0  0  0  0  0  0  0  0  0
   32.3391   39.6727   59.7589 H   0  0  0  0  0  0  0  0  0  0  0  0
  1  2  1  0  0  0  0
  1  9  1  0  0  0  0
  1 10  1  0  0  0  0
  1 11  1  0  0  0  0
  2  8  1  0  0  0  0
  2  3  1  0  0  0  0
  2  4  1  0  0  0  0
  3 12  1  0  0  0  0
  3 13  1  0  0  0  0
  3 14  1  0  0  0  0
  4  5  1  0  0  0  0
  4 15  1  0  0  0  0
  4 16  1  0  0  0  0
  5  6  1  0  0  0  0
  6  7  1  0  0  0  0
  6  8  2  0  0  0  0
  7 17  1  0  0  0  0
  7 18  1  0  0  0  0
M  END
$$$$
