ZINC000000055602      none
 OpenBabel11202420153D

 42 44  0  0  0  0  0  0  0  0999 V2000
   29.0374   37.3644   67.9168 C   0  0  0  0  0  0  0  0  0  0  0  0
   29.9276   37.8633   66.8078 C   0  0  0  0  0  0  0  0  0  0  0  0
   29.5818   37.6874   65.5696 N   0  0  0  0  0  0  0  0  0  0  0  0
   30.4694   38.0258   64.5399 N   0  0  0  0  0  0  0  0  0  0  0  0
   30.1060   39.0320   63.5304 C   0  0  0  0  0  0  0  0  0  0  0  0
   30.3484   38.4359   62.1396 C   0  0  0  0  0  0  0  0  0  0  0  0
   31.7295   37.9424   62.0558 N   0  0  0  0  0  0  0  0  0  0  0  0
   32.0394   37.5408   60.7544 C   0  0  0  0  0  0  0  0  0  0  0  0
   32.5757   38.4521   59.8537 C   0  0  0  0  0  0  0  0  0  0  0  0
   32.8807   38.0518   58.5677 C   0  0  0  0  0  0  0  0  0  0  0  0
   32.6526   36.7453   58.1762 C   0  0  0  0  0  0  0  0  0  0  0  0
   32.1189   35.8354   59.0704 C   0  0  0  0  0  0  0  0  0  0  0  0
   31.8116   36.2291   60.3579 C   0  0  0  0  0  0  0  0  0  0  0  0
   31.9653   36.8534   63.0130 C   0  0  0  0  0  0  0  0  0  0  0  0
   31.7893   37.3846   64.4396 C   0  0  0  0  0  0  0  0  0  0  0  0
   31.1917   38.5515   67.1300 C   0  0  0  0  0  0  0  0  0  0  0  0
   31.4065   39.8626   66.6988 C   0  0  0  0  0  0  0  0  0  0  0  0
   32.5894   40.5013   67.0070 C   0  0  0  0  0  0  0  0  0  0  0  0
   33.5660   39.8433   67.7337 C   0  0  0  0  0  0  0  0  0  0  0  0
   33.3620   38.5427   68.1599 C   0  0  0  0  0  0  0  0  0  0  0  0
   32.1820   37.8932   67.8627 C   0  0  0  0  0  0  0  0  0  0  0  0
   29.3159   36.3427   68.1745 H   0  0  0  0  0  0  0  0  0  0  0  0
   29.1534   38.0043   68.7914 H   0  0  0  0  0  0  0  0  0  0  0  0
   27.9988   37.3855   67.5863 H   0  0  0  0  0  0  0  0  0  0  0  0
   30.7236   39.9207   63.6605 H   0  0  0  0  0  0  0  0  0  0  0  0
   29.0536   39.2949   63.6377 H   0  0  0  0  0  0  0  0  0  0  0  0
   30.1898   39.2034   61.3822 H   0  0  0  0  0  0  0  0  0  0  0  0
   29.6565   37.6104   61.9722 H   0  0  0  0  0  0  0  0  0  0  0  0
   32.7538   39.4728   60.1588 H   0  0  0  0  0  0  0  0  0  0  0  0
   33.2973   38.7599   57.8668 H   0  0  0  0  0  0  0  0  0  0  0  0
   32.8877   36.4359   57.1685 H   0  0  0  0  0  0  0  0  0  0  0  0
   31.9417   34.8158   58.7613 H   0  0  0  0  0  0  0  0  0  0  0  0
   31.3951   35.5179   61.0559 H   0  0  0  0  0  0  0  0  0  0  0  0
   31.2509   36.0500   62.8334 H   0  0  0  0  0  0  0  0  0  0  0  0
   32.9794   36.4734   62.8891 H   0  0  0  0  0  0  0  0  0  0  0  0
   32.5685   38.1151   64.6571 H   0  0  0  0  0  0  0  0  0  0  0  0
   31.8497   36.5585   65.1481 H   0  0  0  0  0  0  0  0  0  0  0  0
   30.6469   40.3760   66.1280 H   0  0  0  0  0  0  0  0  0  0  0  0
   32.7554   41.5163   66.6775 H   0  0  0  0  0  0  0  0  0  0  0  0
   34.4918   40.3469   67.9690 H   0  0  0  0  0  0  0  0  0  0  0  0
   34.1285   38.0351   68.7265 H   0  0  0  0  0  0  0  0  0  0  0  0
   32.0243   36.8779   68.1955 H   0  0  0  0  0  0  0  0  0  0  0  0
  1  2  1  0  0  0  0
  1 22  1  0  0  0  0
  1 23  1  0  0  0  0
  1 24  1  0  0  0  0
  2  3  2  0  0  0  0
  2 16  1  0  0  0  0
  3  4  1  0  0  0  0
  4 15  1  0  0  0  0
  4  5  1  0  0  0  0
  5  6  1  0  0  0  0
  5 25  1  0  0  0  0
  5 26  1  0  0  0  0
  6  7  1  0  0  0  0
  6 27  1  0  0  0  0
  6 28  1  0  0  0  0
  7  8  1  0  0  0  0
  7 14  1  0  0  0  0
  8 13  2  0  0  0  0
  8  9  1  0  0  0  0
  9 10  2  0  0  0  0
  9 29  1  0  0  0  0
 10 11  1  0  0  0  0
 10 30  1  0  0  0  0
 11 12  2  0  0  0  0
 11 31  1  0  0  0  0
 12 13  1  0  0  0  0
 12 32  1  0  0  0  0
 13 33  1  0  0  0  0
 14 15  1  0  0  0  0
 14 34  1  0  0  0  0
 14 35  1  0  0  0  0
 15 36  1  0  0  0  0
 15 37  1  0  0  0  0
 16 21  2  0  0  0  0
 16 17  1  0  0  0  0
 17 18  2  0  0  0  0
 17 38  1  0  0  0  0
 18 19  1  0  0  0  0
 18 39  1  0  0  0  0
 19 20  2  0  0  0  0
 19 40  1  0  0  0  0
 20 21  1  0  0  0  0
 20 41  1  0  0  0  0
 21 42  1  0  0  0  0
M  END
$$$$
