ZINC000000005312      none
 OpenBabel11202420153D

 31 33  0  0  0  0  0  0  0  0999 V2000
   32.0834   37.5420   61.6797 C   0  0  0  0  0  0  0  0  0  0  0  0
   31.8106   37.9062   63.1164 C   0  0  0  0  0  0  0  0  0  0  0  0
   30.9604   38.8752   63.3936 N   0  0  0  0  0  0  0  0  0  0  0  0
   30.6883   39.2303   64.6349 C   0  0  0  0  0  0  0  0  0  0  0  0
   31.2921   38.5914   65.6995 C   0  0  0  0  0  0  0  0  0  0  0  0
   32.1924   37.5672   65.4511 C   0  0  0  0  0  0  0  0  0  0  0  0
   32.4569   37.2179   64.1344 C   0  0  0  0  0  0  0  0  0  0  0  0
   33.3333   36.2198   63.8464 O   0  0  0  0  0  0  0  0  0  0  0  0
   32.6990   37.0475   66.7736 C   0  0  0  0  0  0  0  0  0  0  0  0
   32.3711   38.0959   67.7672 N   0  0  0  0  0  0  0  0  0  0  0  0
   33.4318   38.9921   67.9178 C   0  0  0  0  0  0  0  0  0  0  0  0
   33.8836   39.7257   66.8282 C   0  0  0  0  0  0  0  0  0  0  0  0
   34.9296   40.6143   66.9818 C   0  0  0  0  0  0  0  0  0  0  0  0
   35.5339   40.7665   68.2163 C   0  0  0  0  0  0  0  0  0  0  0  0
   35.0901   40.0340   69.3020 C   0  0  0  0  0  0  0  0  0  0  0  0
   34.0412   39.1474   69.1565 C   0  0  0  0  0  0  0  0  0  0  0  0
   31.1834   38.7707   67.1949 C   0  0  0  0  0  0  0  0  0  0  0  0
   31.3806   36.7725   61.3603 H   0  0  0  0  0  0  0  0  0  0  0  0
   31.9650   38.4253   61.0522 H   0  0  0  0  0  0  0  0  0  0  0  0
   33.1018   37.1647   61.5877 H   0  0  0  0  0  0  0  0  0  0  0  0
   29.9857   40.0294   64.8201 H   0  0  0  0  0  0  0  0  0  0  0  0
   33.7279   35.8056   64.6261 H   0  0  0  0  0  0  0  0  0  0  0  0
   32.1955   36.1153   67.0296 H   0  0  0  0  0  0  0  0  0  0  0  0
   33.7773   36.8941   66.7298 H   0  0  0  0  0  0  0  0  0  0  0  0
   33.4149   39.6040   65.8629 H   0  0  0  0  0  0  0  0  0  0  0  0
   35.2786   41.1880   66.1359 H   0  0  0  0  0  0  0  0  0  0  0  0
   36.3541   41.4594   68.3329 H   0  0  0  0  0  0  0  0  0  0  0  0
   35.5641   40.1555   70.2647 H   0  0  0  0  0  0  0  0  0  0  0  0
   33.6953   38.5753   70.0046 H   0  0  0  0  0  0  0  0  0  0  0  0
   31.1940   39.8307   67.4487 H   0  0  0  0  0  0  0  0  0  0  0  0
   30.2705   38.3037   67.5647 H   0  0  0  0  0  0  0  0  0  0  0  0
  1  2  1  0  0  0  0
  1 18  1  0  0  0  0
  1 19  1  0  0  0  0
  1 20  1  0  0  0  0
  2  7  2  0  0  0  0
  2  3  1  0  0  0  0
  3  4  2  0  0  0  0
  4  5  1  0  0  0  0
  4 21  1  0  0  0  0
  5 17  1  0  0  0  0
  5  6  2  0  0  0  0
  6  7  1  0  0  0  0
  6  9  1  0  0  0  0
  7  8  1  0  0  0  0
  8 22  1  0  0  0  0
  9 10  1  0  0  0  0
  9 23  1  0  0  0  0
  9 24  1  0  0  0  0
 10 11  1  0  0  0  0
 10 17  1  0  0  0  0
 11 16  2  0  0  0  0
 11 12  1  0  0  0  0
 12 13  2  0  0  0  0
 12 25  1  0  0  0  0
 13 14  1  0  0  0  0
 13 26  1  0  0  0  0
 14 15  2  0  0  0  0
 14 27  1  0  0  0  0
 15 16  1  0  0  0  0
 15 28  1  0  0  0  0
 16 29  1  0  0  0  0
 17 30  1  0  0  0  0
 17 31  1  0  0  0  0
M  END
$$$$
