ZINC000000055397      none
 OpenBabel11202420153D

 40 42  0  0  0  0  0  0  0  0999 V2000
   28.2087   32.8951   68.4380 C   0  0  0  0  0  0  0  0  0  0  0  0
   28.3644   33.8381   67.2433 C   0  0  0  0  0  0  0  0  0  0  0  0
   27.1452   33.7204   66.3264 C   0  0  0  0  0  0  0  0  0  0  0  0
   28.5045   35.2721   67.7332 C   0  0  0  0  0  0  0  0  0  0  0  0
   28.8445   36.2469   66.6436 C   0  0  0  0  0  0  0  0  0  0  0  0
   29.4087   35.9580   65.4269 C   0  0  0  0  0  0  0  0  0  0  0  0
   29.6897   36.9985   64.5369 C   0  0  0  0  0  0  0  0  0  0  0  0
   30.2680   36.7017   63.3297 N   0  0  0  0  0  0  0  0  0  0  0  0
   31.6030   37.3079   63.2217 C   0  0  0  0  0  0  0  0  0  0  0  0
   32.2350   36.9031   61.8873 C   0  0  0  0  0  0  0  0  0  0  0  0
   31.3725   37.2990   60.8174 O   0  0  0  0  0  0  0  0  0  0  0  0
   30.0640   36.7264   60.8908 C   0  0  0  0  0  0  0  0  0  0  0  0
   29.4100   37.1295   62.2151 C   0  0  0  0  0  0  0  0  0  0  0  0
   29.4082   38.2913   64.8296 N   0  0  0  0  0  0  0  0  0  0  0  0
   29.6147   38.9880   64.1871 H   0  0  0  0  0  0  0  0  0  0  0  0
   28.8378   38.6123   66.0063 C   0  0  0  0  0  0  0  0  0  0  0  0
   28.4621   40.2437   66.3644 S   0  0  0  0  0  0  0  0  0  0  0  0
   28.5527   37.5984   66.9407 C   0  0  0  0  0  0  0  0  0  0  0  0
   27.9633   37.9382   68.2009 C   0  0  0  0  0  0  0  0  0  0  0  0
   27.4959   38.2078   69.2005 N   0  0  0  0  0  0  0  0  0  0  0  0
   29.7613   34.5783   64.9299 C   0  0  0  0  0  0  0  0  0  0  0  0
   29.8748   33.4169   66.3180 S   0  0  0  0  0  0  0  0  0  0  0  0
   27.3195   33.1707   69.0049 H   0  0  0  0  0  0  0  0  0  0  0  0
   28.1089   31.8701   68.0812 H   0  0  0  0  0  0  0  0  0  0  0  0
   29.0869   32.9729   69.0791 H   0  0  0  0  0  0  0  0  0  0  0  0
   27.2692   34.3833   65.4701 H   0  0  0  0  0  0  0  0  0  0  0  0
   27.0500   32.6917   65.9788 H   0  0  0  0  0  0  0  0  0  0  0  0
   26.2478   34.0022   66.8773 H   0  0  0  0  0  0  0  0  0  0  0  0
   29.2880   35.3074   68.4900 H   0  0  0  0  0  0  0  0  0  0  0  0
   27.5633   35.5757   68.1917 H   0  0  0  0  0  0  0  0  0  0  0  0
   31.5147   38.3932   63.2682 H   0  0  0  0  0  0  0  0  0  0  0  0
   32.2292   36.9576   64.0421 H   0  0  0  0  0  0  0  0  0  0  0  0
   32.3726   35.8220   61.8628 H   0  0  0  0  0  0  0  0  0  0  0  0
   33.2011   37.3955   61.7771 H   0  0  0  0  0  0  0  0  0  0  0  0
   30.1384   35.6402   60.8374 H   0  0  0  0  0  0  0  0  0  0  0  0
   29.4593   37.0910   60.0604 H   0  0  0  0  0  0  0  0  0  0  0  0
   28.4354   36.6489   62.3008 H   0  0  0  0  0  0  0  0  0  0  0  0
   29.2859   38.2120   62.2459 H   0  0  0  0  0  0  0  0  0  0  0  0
   30.7195   34.6156   64.4116 H   0  0  0  0  0  0  0  0  0  0  0  0
   28.9902   34.2392   64.2381 H   0  0  0  0  0  0  0  0  0  0  0  0
  1  2  1  0  0  0  0
  1 23  1  0  0  0  0
  1 24  1  0  0  0  0
  1 25  1  0  0  0  0
  2 22  1  0  0  0  0
  2  3  1  0  0  0  0
  2  4  1  0  0  0  0
  3 26  1  0  0  0  0
  3 27  1  0  0  0  0
  3 28  1  0  0  0  0
  4  5  1  0  0  0  0
  4 29  1  0  0  0  0
  4 30  1  0  0  0  0
  5 18  2  0  0  0  0
  5  6  1  0  0  0  0
  6  7  2  0  0  0  0
  6 21  1  0  0  0  0
  7  8  1  0  0  0  0
  7 14  1  0  0  0  0
  8 13  1  0  0  0  0
  8  9  1  0  0  0  0
  9 10  1  0  0  0  0
  9 31  1  0  0  0  0
  9 32  1  0  0  0  0
 10 11  1  0  0  0  0
 10 33  1  0  0  0  0
 10 34  1  0  0  0  0
 11 12  1  0  0  0  0
 12 13  1  0  0  0  0
 12 35  1  0  0  0  0
 12 36  1  0  0  0  0
 13 37  1  0  0  0  0
 13 38  1  0  0  0  0
 14 15  1  0  0  0  0
 14 16  1  0  0  0  0
 16 17  2  0  0  0  0
 16 18  1  0  0  0  0
 18 19  1  0  0  0  0
 19 20  3  0  0  0  0
 21 22  1  0  0  0  0
 21 39  1  0  0  0  0
 21 40  1  0  0  0  0
M  END
$$$$
