ZINC000000029499      none
 OpenBabel11202420163D

 23 23  0  0  0  0  0  0  0  0999 V2000
   33.8073   37.5991   55.3835 C   0  0  0  0  0  0  0  0  0  0  0  0
   33.3364   38.0318   56.7481 C   0  0  0  0  0  0  0  0  0  0  0  0
   33.2540   39.3776   57.0549 C   0  0  0  0  0  0  0  0  0  0  0  0
   32.8279   39.7775   58.3061 C   0  0  0  0  0  0  0  0  0  0  0  0
   32.4716   38.8266   59.2544 C   0  0  0  0  0  0  0  0  0  0  0  0
   32.0358   39.2284   60.5190 N   0  0  0  0  0  0  0  0  0  0  0  0
   30.9576   38.2934   61.3590 S   0  0  0  0  0  0  0  0  0  0  0  0
   31.9957   37.1630   62.3259 C   0  0  0  0  0  0  0  0  0  0  0  0
   30.2894   39.2111   62.2137 O   0  0  0  0  0  0  0  0  0  0  0  0
   30.2509   37.5827   60.3516 O   0  0  0  0  0  0  0  0  0  0  0  0
   32.5501   37.4756   58.9423 C   0  0  0  0  0  0  0  0  0  0  0  0
   32.9824   37.0815   57.6898 C   0  0  0  0  0  0  0  0  0  0  0  0
   33.0807   35.3932   57.2977 Cl  0  0  0  0  0  0  0  0  0  0  0  0
   32.9517   37.5174   54.7129 H   0  0  0  0  0  0  0  0  0  0  0  0
   34.5078   38.3359   54.9904 H   0  0  0  0  0  0  0  0  0  0  0  0
   34.3027   36.6313   55.4600 H   0  0  0  0  0  0  0  0  0  0  0  0
   33.5266   40.1169   56.3163 H   0  0  0  0  0  0  0  0  0  0  0  0
   32.7674   40.8288   58.5459 H   0  0  0  0  0  0  0  0  0  0  0  0
   32.3646   40.0551   60.9054 H   0  0  0  0  0  0  0  0  0  0  0  0
   32.5751   37.7333   63.0521 H   0  0  0  0  0  0  0  0  0  0  0  0
   31.3630   36.4458   62.8486 H   0  0  0  0  0  0  0  0  0  0  0  0
   32.6731   36.6308   61.6582 H   0  0  0  0  0  0  0  0  0  0  0  0
   32.2742   36.7340   59.6772 H   0  0  0  0  0  0  0  0  0  0  0  0
  1  2  1  0  0  0  0
  1 14  1  0  0  0  0
  1 15  1  0  0  0  0
  1 16  1  0  0  0  0
  2 12  2  0  0  0  0
  2  3  1  0  0  0  0
  3  4  2  0  0  0  0
  3 17  1  0  0  0  0
  4  5  1  0  0  0  0
  4 18  1  0  0  0  0
  5  6  1  0  0  0  0
  5 11  2  0  0  0  0
  6  7  1  0  0  0  0
  6 19  1  0  0  0  0
  7  8  1  0  0  0  0
  7  9  2  0  0  0  0
  7 10  2  0  0  0  0
  8 20  1  0  0  0  0
  8 21  1  0  0  0  0
  8 22  1  0  0  0  0
 11 12  1  0  0  0  0
 11 23  1  0  0  0  0
 12 13  1  0  0  0  0
M  END
$$$$
