ZINC000000038928      none
 OpenBabel11202420153D

 39 40  0  0  0  0  0  0  0  0999 V2000
   31.1302   41.1997   68.3205 C   0  0  0  0  0  0  0  0  0  0  0  0
   30.7886   40.5634   66.9717 C   0  0  0  0  0  0  0  0  0  0  0  0
   31.2246   39.2027   66.9629 O   0  0  0  0  0  0  0  0  0  0  0  0
   31.5891   38.6790   65.7618 C   0  0  0  0  0  0  0  0  0  0  0  0
   32.5549   37.6851   65.7034 C   0  0  0  0  0  0  0  0  0  0  0  0
   32.9263   37.1533   64.4842 C   0  0  0  0  0  0  0  0  0  0  0  0
   32.3322   37.6137   63.3165 C   0  0  0  0  0  0  0  0  0  0  0  0
   32.7079   37.0753   62.0805 N   0  0  0  0  0  0  0  0  0  0  0  0
   31.8217   37.2125   60.9221 C   0  0  0  0  0  0  0  0  0  0  0  0
   32.0117   36.0341   60.0021 C   0  0  0  0  0  0  0  0  0  0  0  0
   31.7976   34.9145   60.4024 O   0  0  0  0  0  0  0  0  0  0  0  0
   32.4206   36.2292   58.7326 N   0  0  0  0  0  0  0  0  0  0  0  0
   32.7044   37.4651   58.1372 N   0  0  0  0  0  0  0  0  0  0  0  0
   33.0699   37.2502   56.9014 C   0  0  0  0  0  0  0  0  0  0  0  0
   33.4636   38.3075   55.9023 C   0  0  0  0  0  0  0  0  0  0  0  0
   33.0278   35.8693   56.6603 C   0  0  0  0  0  0  0  0  0  0  0  0
   32.6318   35.2594   57.7982 C   0  0  0  0  0  0  0  0  0  0  0  0
   32.4508   33.7766   57.9972 C   0  0  0  0  0  0  0  0  0  0  0  0
   31.3692   38.6123   63.3753 C   0  0  0  0  0  0  0  0  0  0  0  0
   30.9952   39.1392   64.5961 C   0  0  0  0  0  0  0  0  0  0  0  0
   32.2083   41.1626   68.4771 H   0  0  0  0  0  0  0  0  0  0  0  0
   30.7975   42.2377   68.3273 H   0  0  0  0  0  0  0  0  0  0  0  0
   30.6281   40.6521   69.1182 H   0  0  0  0  0  0  0  0  0  0  0  0
   31.2906   41.1109   66.1742 H   0  0  0  0  0  0  0  0  0  0  0  0
   29.7106   40.6006   66.8151 H   0  0  0  0  0  0  0  0  0  0  0  0
   33.0169   37.3272   66.6117 H   0  0  0  0  0  0  0  0  0  0  0  0
   33.6788   36.3800   64.4388 H   0  0  0  0  0  0  0  0  0  0  0  0
   33.5551   36.6114   61.9910 H   0  0  0  0  0  0  0  0  0  0  0  0
   32.0610   38.1323   60.3885 H   0  0  0  0  0  0  0  0  0  0  0  0
   30.7858   37.2469   61.2592 H   0  0  0  0  0  0  0  0  0  0  0  0
   34.5374   38.4840   55.9641 H   0  0  0  0  0  0  0  0  0  0  0  0
   32.9302   39.2322   56.1227 H   0  0  0  0  0  0  0  0  0  0  0  0
   33.2079   37.9712   54.8975 H   0  0  0  0  0  0  0  0  0  0  0  0
   33.2716   35.3796   55.7291 H   0  0  0  0  0  0  0  0  0  0  0  0
   31.4284   33.4979   57.7421 H   0  0  0  0  0  0  0  0  0  0  0  0
   33.1457   33.2362   57.3545 H   0  0  0  0  0  0  0  0  0  0  0  0
   32.6472   33.5231   59.0389 H   0  0  0  0  0  0  0  0  0  0  0  0
   30.9101   38.9743   62.4673 H   0  0  0  0  0  0  0  0  0  0  0  0
   30.2433   39.9132   64.6424 H   0  0  0  0  0  0  0  0  0  0  0  0
  1  2  1  0  0  0  0
  1 21  1  0  0  0  0
  1 22  1  0  0  0  0
  1 23  1  0  0  0  0
  2  3  1  0  0  0  0
  2 24  1  0  0  0  0
  2 25  1  0  0  0  0
  3  4  1  0  0  0  0
  4 20  2  0  0  0  0
  4  5  1  0  0  0  0
  5  6  2  0  0  0  0
  5 26  1  0  0  0  0
  6  7  1  0  0  0  0
  6 27  1  0  0  0  0
  7  8  1  0  0  0  0
  7 19  2  0  0  0  0
  8  9  1  0  0  0  0
  8 28  1  0  0  0  0
  9 10  1  0  0  0  0
  9 29  1  0  0  0  0
  9 30  1  0  0  0  0
 10 11  2  0  0  0  0
 10 12  1  0  0  0  0
 12 17  1  0  0  0  0
 12 13  1  0  0  0  0
 13 14  2  0  0  0  0
 14 15  1  0  0  0  0
 14 16  1  0  0  0  0
 15 31  1  0  0  0  0
 15 32  1  0  0  0  0
 15 33  1  0  0  0  0
 16 17  2  0  0  0  0
 16 34  1  0  0  0  0
 17 18  1  0  0  0  0
 18 35  1  0  0  0  0
 18 36  1  0  0  0  0
 18 37  1  0  0  0  0
 19 20  1  0  0  0  0
 19 38  1  0  0  0  0
 20 39  1  0  0  0  0
M  END
$$$$
