ZINC000000040024      none
 OpenBabel11202420153D

 25 26  0  0  0  0  0  0  0  0999 V2000
   33.7944   34.9351   55.4588 N   0  0  0  0  0  0  0  0  0  0  0  0
   33.2054   35.8329   56.2733 C   0  0  0  0  0  0  0  0  0  0  0  0
   33.0124   36.9721   55.8862 O   0  0  0  0  0  0  0  0  0  0  0  0
   32.8120   35.4535   57.5749 C   0  0  0  0  0  0  0  0  0  0  0  0
   33.0188   33.8559   58.2823 S   0  0  0  0  0  0  0  0  0  0  0  0
   32.2944   34.3713   59.7403 C   0  0  0  0  0  0  0  0  0  0  0  0
   32.0584   33.3798   61.1158 S   0  0  0  0  0  0  0  0  0  0  0  0
   31.9451   35.6515   59.6604 N   0  0  0  0  0  0  0  0  0  0  0  0
   31.3331   36.3259   60.7254 C   0  0  0  0  0  0  0  0  0  0  0  0
   29.9489   36.3449   60.8334 C   0  0  0  0  0  0  0  0  0  0  0  0
   29.3487   37.0067   61.8867 C   0  0  0  0  0  0  0  0  0  0  0  0
   30.1247   37.6588   62.8275 C   0  0  0  0  0  0  0  0  0  0  0  0
   31.5032   37.6459   62.7200 C   0  0  0  0  0  0  0  0  0  0  0  0
   32.1093   36.9815   61.6718 C   0  0  0  0  0  0  0  0  0  0  0  0
   32.2143   36.2589   58.4830 C   0  0  0  0  0  0  0  0  0  0  0  0
   31.9128   37.5797   58.2326 N   0  0  0  0  0  0  0  0  0  0  0  0
   33.9480   34.0282   55.7670 H   0  0  0  0  0  0  0  0  0  0  0  0
   34.0648   35.1956   54.5644 H   0  0  0  0  0  0  0  0  0  0  0  0
   29.3424   35.8393   60.0967 H   0  0  0  0  0  0  0  0  0  0  0  0
   28.2723   37.0186   61.9732 H   0  0  0  0  0  0  0  0  0  0  0  0
   29.6528   38.1794   63.6477 H   0  0  0  0  0  0  0  0  0  0  0  0
   32.1065   38.1560   63.4564 H   0  0  0  0  0  0  0  0  0  0  0  0
   33.1861   36.9718   61.5883 H   0  0  0  0  0  0  0  0  0  0  0  0
   32.1294   37.9719   57.3722 H   0  0  0  0  0  0  0  0  0  0  0  0
   31.4803   38.1162   58.9151 H   0  0  0  0  0  0  0  0  0  0  0  0
  1  2  1  0  0  0  0
  1 17  1  0  0  0  0
  1 18  1  0  0  0  0
  2  3  2  0  0  0  0
  2  4  1  0  0  0  0
  4 15  2  0  0  0  0
  4  5  1  0  0  0  0
  5  6  1  0  0  0  0
  6  7  2  0  0  0  0
  6  8  1  0  0  0  0
  8  9  1  0  0  0  0
  8 15  1  0  0  0  0
  9 14  2  0  0  0  0
  9 10  1  0  0  0  0
 10 11  2  0  0  0  0
 10 19  1  0  0  0  0
 11 12  1  0  0  0  0
 11 20  1  0  0  0  0
 12 13  2  0  0  0  0
 12 21  1  0  0  0  0
 13 14  1  0  0  0  0
 13 22  1  0  0  0  0
 14 23  1  0  0  0  0
 15 16  1  0  0  0  0
 16 24  1  0  0  0  0
 16 25  1  0  0  0  0
M  END
$$$$
