ZINC000000039740      none
 OpenBabel11202420153D

 25 26  0  0  0  0  0  0  0  0999 V2000
   33.5465   40.3341   58.6587 C   0  0  0  0  0  0  0  0  0  0  0  0
   33.3651   38.9331   58.1338 C   0  0  0  0  0  0  0  0  0  0  0  0
   32.8957   37.9267   58.7963 N   0  0  0  0  0  0  0  0  0  0  0  0
   32.8054   36.8180   58.2024 N   0  0  0  0  0  0  0  0  0  0  0  0
   33.2029   36.7625   56.9635 C   0  0  0  0  0  0  0  0  0  0  0  0
   33.1886   35.6401   56.1487 N   0  0  0  0  0  0  0  0  0  0  0  0
   33.6705   35.7309   54.7682 C   0  0  0  0  0  0  0  0  0  0  0  0
   32.4943   36.0333   53.8168 C   0  0  0  0  0  0  0  0  0  0  0  0
   32.8156   35.2129   52.5429 C   0  0  0  0  0  0  0  0  0  0  0  0
   33.4185   33.9079   53.1199 C   0  0  0  0  0  0  0  0  0  0  0  0
   34.2581   34.3796   54.3250 C   0  0  0  0  0  0  0  0  0  0  0  0
   33.7630   38.3731   56.5081 S   0  0  0  0  0  0  0  0  0  0  0  0
   32.6421   40.9126   58.4703 H   0  0  0  0  0  0  0  0  0  0  0  0
   33.7380   40.2984   59.7312 H   0  0  0  0  0  0  0  0  0  0  0  0
   34.3904   40.8047   58.1543 H   0  0  0  0  0  0  0  0  0  0  0  0
   32.8597   34.7950   56.4930 H   0  0  0  0  0  0  0  0  0  0  0  0
   34.4269   36.5115   54.6877 H   0  0  0  0  0  0  0  0  0  0  0  0
   31.5533   35.7024   54.2564 H   0  0  0  0  0  0  0  0  0  0  0  0
   32.4549   37.0977   53.5852 H   0  0  0  0  0  0  0  0  0  0  0  0
   33.5444   35.7335   51.9218 H   0  0  0  0  0  0  0  0  0  0  0  0
   31.9083   35.0019   51.9769 H   0  0  0  0  0  0  0  0  0  0  0  0
   34.0536   33.4213   52.3796 H   0  0  0  0  0  0  0  0  0  0  0  0
   32.6283   33.2320   53.4465 H   0  0  0  0  0  0  0  0  0  0  0  0
   35.2996   34.5045   54.0286 H   0  0  0  0  0  0  0  0  0  0  0  0
   34.1855   33.6565   55.1373 H   0  0  0  0  0  0  0  0  0  0  0  0
  1  2  1  0  0  0  0
  1 13  1  0  0  0  0
  1 14  1  0  0  0  0
  1 15  1  0  0  0  0
  2 12  1  0  0  0  0
  2  3  2  0  0  0  0
  3  4  1  0  0  0  0
  4  5  2  0  0  0  0
  5  6  1  0  0  0  0
  5 12  1  0  0  0  0
  6  7  1  0  0  0  0
  6 16  1  0  0  0  0
  7 11  1  0  0  0  0
  7  8  1  0  0  0  0
  7 17  1  0  0  0  0
  8  9  1  0  0  0  0
  8 18  1  0  0  0  0
  8 19  1  0  0  0  0
  9 10  1  0  0  0  0
  9 20  1  0  0  0  0
  9 21  1  0  0  0  0
 10 11  1  0  0  0  0
 10 22  1  0  0  0  0
 10 23  1  0  0  0  0
 11 24  1  0  0  0  0
 11 25  1  0  0  0  0
M  END
$$$$
