ZINC000000039874      none
 OpenBabel11202420153D

 24 25  0  0  1  0  0  0  0  0999 V2000
   32.5038   35.3108   61.9121 O   0  0  0  0  0  0  0  0  0  0  0  0
   32.5326   36.6881   62.2609 S   0  0  2  0  0  0  0  0  0  0  0  0
   31.5892   36.9446   63.7878 C   0  0  0  0  0  0  0  0  0  0  0  0
   30.1861   36.3675   63.6391 C   0  0  0  0  0  0  0  0  0  0  0  0
   29.3386   37.2354   62.7159 C   0  0  0  0  0  0  0  0  0  0  0  0
   29.8816   37.0273   60.9987 S   0  0  0  0  0  0  0  0  0  0  0  0
   31.5896   37.6420   61.0376 C   0  0  2  0  0  0  0  0  0  0  0  0
   31.5934   38.6959   61.3156 H   0  0  0  0  0  0  0  0  0  0  0  0
   32.2160   37.4758   59.6771 C   0  0  0  0  0  0  0  0  0  0  0  0
   32.3226   36.2184   59.1021 C   0  0  0  0  0  0  0  0  0  0  0  0
   32.9061   36.1132   57.8490 C   0  0  0  0  0  0  0  0  0  0  0  0
   33.3589   37.2570   57.2187 C   0  0  0  0  0  0  0  0  0  0  0  0
   33.2410   38.4367   57.7958 N   0  0  0  0  0  0  0  0  0  0  0  0
   32.6863   38.5750   58.9843 C   0  0  0  0  0  0  0  0  0  0  0  0
   31.5207   38.0124   63.9952 H   0  0  0  0  0  0  0  0  0  0  0  0
   32.0988   36.4479   64.6133 H   0  0  0  0  0  0  0  0  0  0  0  0
   29.7127   36.3184   64.6197 H   0  0  0  0  0  0  0  0  0  0  0  0
   30.2547   35.3622   63.2233 H   0  0  0  0  0  0  0  0  0  0  0  0
   28.2926   36.9410   62.8025 H   0  0  0  0  0  0  0  0  0  0  0  0
   29.4449   38.2811   63.0045 H   0  0  0  0  0  0  0  0  0  0  0  0
   31.9601   35.3419   59.6185 H   0  0  0  0  0  0  0  0  0  0  0  0
   33.0058   35.1496   57.3714 H   0  0  0  0  0  0  0  0  0  0  0  0
   33.8143   37.1836   56.2422 H   0  0  0  0  0  0  0  0  0  0  0  0
   32.6027   39.5583   59.4231 H   0  0  0  0  0  0  0  0  0  0  0  0
  2  1  2  6  0  0  0
  2  7  1  0  0  0  0
  2  3  1  0  0  0  0
  3  4  1  0  0  0  0
  3 15  1  0  0  0  0
  3 16  1  0  0  0  0
  4  5  1  0  0  0  0
  4 17  1  0  0  0  0
  4 18  1  0  0  0  0
  5  6  1  0  0  0  0
  5 19  1  0  0  0  0
  5 20  1  0  0  0  0
  6  7  1  0  0  0  0
  7  8  1  1  0  0  0
  7  9  1  0  0  0  0
  9 14  2  0  0  0  0
  9 10  1  0  0  0  0
 10 11  2  0  0  0  0
 10 21  1  0  0  0  0
 11 12  1  0  0  0  0
 11 22  1  0  0  0  0
 12 13  2  0  0  0  0
 12 23  1  0  0  0  0
 13 14  1  0  0  0  0
 14 24  1  0  0  0  0
M  END
$$$$
