ZINC000000055431      none
 OpenBabel11202420153D

 33 35  0  0  0  0  0  0  0  0999 V2000
   29.2270   36.5739   59.9370 C   0  0  0  0  0  0  0  0  0  0  0  0
   30.1413   36.7280   61.1249 C   0  0  0  0  0  0  0  0  0  0  0  0
   29.6199   36.7466   62.4007 C   0  0  0  0  0  0  0  0  0  0  0  0
   30.4580   36.8876   63.4934 C   0  0  0  0  0  0  0  0  0  0  0  0
   31.8258   37.0111   63.3159 C   0  0  0  0  0  0  0  0  0  0  0  0
   32.3649   36.9888   62.0480 C   0  0  0  0  0  0  0  0  0  0  0  0
   31.5237   36.8523   60.9359 C   0  0  0  0  0  0  0  0  0  0  0  0
   32.0878   36.8337   59.5821 C   0  0  0  0  0  0  0  0  0  0  0  0
   32.4681   35.6395   59.0109 C   0  0  0  0  0  0  0  0  0  0  0  0
   32.8783   35.4313   57.7264 N   0  0  0  0  0  0  0  0  0  0  0  0
   33.1496   34.1653   57.5651 C   0  0  0  0  0  0  0  0  0  0  0  0
   33.6200   33.5725   56.2981 C   0  0  0  0  0  0  0  0  0  0  0  0
   34.8552   32.9222   56.2431 C   0  0  0  0  0  0  0  0  0  0  0  0
   35.2883   32.3703   55.0564 C   0  0  0  0  0  0  0  0  0  0  0  0
   34.5037   32.4597   53.9190 C   0  0  0  0  0  0  0  0  0  0  0  0
   33.2767   33.0946   53.9651 C   0  0  0  0  0  0  0  0  0  0  0  0
   32.8309   33.6583   55.1462 C   0  0  0  0  0  0  0  0  0  0  0  0
   31.6348   34.2849   55.1891 F   0  0  0  0  0  0  0  0  0  0  0  0
   32.9525   33.4676   58.7003 O   0  0  0  0  0  0  0  0  0  0  0  0
   32.5238   34.3154   59.6603 C   0  0  0  0  0  0  0  0  0  0  0  0
   32.2438   34.0455   60.8128 O   0  0  0  0  0  0  0  0  0  0  0  0
   29.1060   35.5154   59.7064 H   0  0  0  0  0  0  0  0  0  0  0  0
   28.2545   37.0088   60.1680 H   0  0  0  0  0  0  0  0  0  0  0  0
   29.6589   37.0860   59.0771 H   0  0  0  0  0  0  0  0  0  0  0  0
   28.5544   36.6506   62.5483 H   0  0  0  0  0  0  0  0  0  0  0  0
   30.0426   36.9018   64.4902 H   0  0  0  0  0  0  0  0  0  0  0  0
   32.4723   37.1204   64.1741 H   0  0  0  0  0  0  0  0  0  0  0  0
   33.4324   37.0807   61.9116 H   0  0  0  0  0  0  0  0  0  0  0  0
   32.2050   37.7564   59.0332 H   0  0  0  0  0  0  0  0  0  0  0  0
   35.4698   32.8525   57.1284 H   0  0  0  0  0  0  0  0  0  0  0  0
   36.2432   31.8675   55.0134 H   0  0  0  0  0  0  0  0  0  0  0  0
   34.8492   32.0246   52.9928 H   0  0  0  0  0  0  0  0  0  0  0  0
   32.6674   33.1552   53.0755 H   0  0  0  0  0  0  0  0  0  0  0  0
  1  2  1  0  0  0  0
  1 22  1  0  0  0  0
  1 23  1  0  0  0  0
  1 24  1  0  0  0  0
  2  7  2  0  0  0  0
  2  3  1  0  0  0  0
  3  4  2  0  0  0  0
  3 25  1  0  0  0  0
  4  5  1  0  0  0  0
  4 26  1  0  0  0  0
  5  6  2  0  0  0  0
  5 27  1  0  0  0  0
  6  7  1  0  0  0  0
  6 28  1  0  0  0  0
  7  8  1  0  0  0  0
  8  9  2  0  0  0  0
  8 29  1  0  0  0  0
  9 20  1  0  0  0  0
  9 10  1  0  0  0  0
 10 11  2  0  0  0  0
 11 12  1  0  0  0  0
 11 19  1  0  0  0  0
 12 17  2  0  0  0  0
 12 13  1  0  0  0  0
 13 14  2  0  0  0  0
 13 30  1  0  0  0  0
 14 15  1  0  0  0  0
 14 31  1  0  0  0  0
 15 16  2  0  0  0  0
 15 32  1  0  0  0  0
 16 17  1  0  0  0  0
 16 33  1  0  0  0  0
 17 18  1  0  0  0  0
 19 20  1  0  0  0  0
 20 21  2  0  0  0  0
M  END
$$$$
