ZINC000000031183      none
 OpenBabel11202420163D

 28 29  0  0  0  0  0  0  0  0999 V2000
   31.1985   35.6019   61.6689 C   0  0  0  0  0  0  0  0  0  0  0  0
   31.7008   36.5849   60.6429 C   0  0  0  0  0  0  0  0  0  0  0  0
   31.6151   37.7764   60.8518 O   0  0  0  0  0  0  0  0  0  0  0  0
   32.2451   36.1397   59.4932 N   0  0  0  0  0  0  0  0  0  0  0  0
   32.7097   37.0492   58.5436 C   0  0  0  0  0  0  0  0  0  0  0  0
   32.6744   38.3481   58.6497 N   0  0  0  0  0  0  0  0  0  0  0  0
   33.2375   38.8959   57.4709 O   0  0  0  0  0  0  0  0  0  0  0  0
   33.6253   37.8163   56.6398 N   0  0  0  0  0  0  0  0  0  0  0  0
   33.3252   36.7081   57.2576 C   0  0  0  0  0  0  0  0  0  0  0  0
   33.5462   35.4193   56.7753 N   0  0  0  0  0  0  0  0  0  0  0  0
   34.1183   35.2405   55.5681 C   0  0  0  0  0  0  0  0  0  0  0  0
   34.4415   36.2033   54.9000 O   0  0  0  0  0  0  0  0  0  0  0  0
   34.3584   33.8745   55.0595 C   0  0  0  0  0  0  0  0  0  0  0  0
   35.1685   32.9913   55.7763 C   0  0  0  0  0  0  0  0  0  0  0  0
   35.3880   31.7174   55.2962 C   0  0  0  0  0  0  0  0  0  0  0  0
   34.8087   31.3126   54.1063 C   0  0  0  0  0  0  0  0  0  0  0  0
   34.0045   32.1808   53.3904 C   0  0  0  0  0  0  0  0  0  0  0  0
   33.7711   33.4581   53.8622 C   0  0  0  0  0  0  0  0  0  0  0  0
   32.7563   34.5449   52.9663 Cl  0  0  0  0  0  0  0  0  0  0  0  0
   32.0211   34.9659   61.9960 H   0  0  0  0  0  0  0  0  0  0  0  0
   30.7960   36.1438   62.5246 H   0  0  0  0  0  0  0  0  0  0  0  0
   30.4154   34.9849   61.2283 H   0  0  0  0  0  0  0  0  0  0  0  0
   32.3137   35.1866   59.3261 H   0  0  0  0  0  0  0  0  0  0  0  0
   33.2884   34.6511   57.3084 H   0  0  0  0  0  0  0  0  0  0  0  0
   35.6219   33.3052   56.7049 H   0  0  0  0  0  0  0  0  0  0  0  0
   36.0144   31.0338   55.8499 H   0  0  0  0  0  0  0  0  0  0  0  0
   34.9843   30.3137   53.7351 H   0  0  0  0  0  0  0  0  0  0  0  0
   33.5551   31.8583   52.4628 H   0  0  0  0  0  0  0  0  0  0  0  0
  1  2  1  0  0  0  0
  1 20  1  0  0  0  0
  1 21  1  0  0  0  0
  1 22  1  0  0  0  0
  2  3  2  0  0  0  0
  2  4  1  0  0  0  0
  4  5  1  0  0  0  0
  4 23  1  0  0  0  0
  5  9  1  0  0  0  0
  5  6  2  0  0  0  0
  6  7  1  0  0  0  0
  7  8  1  0  0  0  0
  8  9  2  0  0  0  0
  9 10  1  0  0  0  0
 10 11  1  0  0  0  0
 10 24  1  0  0  0  0
 11 12  2  0  0  0  0
 11 13  1  0  0  0  0
 13 18  2  0  0  0  0
 13 14  1  0  0  0  0
 14 15  2  0  0  0  0
 14 25  1  0  0  0  0
 15 16  1  0  0  0  0
 15 26  1  0  0  0  0
 16 17  2  0  0  0  0
 16 27  1  0  0  0  0
 17 18  1  0  0  0  0
 17 28  1  0  0  0  0
 18 19  1  0  0  0  0
M  END
$$$$
