ZINC000000045072      none
 OpenBabel11202420153D

 41 44  0  0  0  0  0  0  0  0999 V2000
   34.9454   41.3478   53.6748 O   0  0  0  0  0  0  0  0  0  0  0  0
   35.2479   40.1737   53.5582 N   0  0  0  0  0  0  0  0  0  0  0  0
   36.0067   39.8255   52.6713 O   0  0  0  0  0  0  0  0  0  0  0  0
   34.6932   39.1700   54.4942 C   0  0  0  0  0  0  0  0  0  0  0  0
   35.0378   37.8375   54.3608 C   0  0  0  0  0  0  0  0  0  0  0  0
   34.5216   36.8985   55.2321 C   0  0  0  0  0  0  0  0  0  0  0  0
   33.6560   37.2941   56.2436 C   0  0  0  0  0  0  0  0  0  0  0  0
   33.1307   36.3445   57.1285 N   0  0  0  0  0  0  0  0  0  0  0  0
   32.7631   36.5737   58.4604 N   0  0  0  0  0  0  0  0  0  0  0  0
   32.3154   35.4442   58.9691 C   0  0  0  0  0  0  0  0  0  0  0  0
   31.8266   35.2500   60.3568 C   0  0  0  0  0  0  0  0  0  0  0  0
   32.4545   34.3332   61.1974 C   0  0  0  0  0  0  0  0  0  0  0  0
   31.9960   34.1569   62.4872 C   0  0  0  0  0  0  0  0  0  0  0  0
   30.9156   34.8879   62.9460 C   0  0  0  0  0  0  0  0  0  0  0  0
   30.2847   35.7957   62.1138 C   0  0  0  0  0  0  0  0  0  0  0  0
   30.7384   35.9841   60.8240 C   0  0  0  0  0  0  0  0  0  0  0  0
   32.3741   34.4558   57.9718 C   0  0  0  0  0  0  0  0  0  0  0  0
   32.8801   35.0318   56.8434 C   0  0  0  0  0  0  0  0  0  0  0  0
   33.1142   34.3581   55.5471 C   0  0  0  0  0  0  0  0  0  0  0  0
   33.9898   33.2747   55.4687 C   0  0  0  0  0  0  0  0  0  0  0  0
   34.1994   32.6471   54.2580 C   0  0  0  0  0  0  0  0  0  0  0  0
   33.5522   33.0973   53.1210 C   0  0  0  0  0  0  0  0  0  0  0  0
   32.6874   34.1747   53.1910 C   0  0  0  0  0  0  0  0  0  0  0  0
   32.4648   34.8072   54.3969 C   0  0  0  0  0  0  0  0  0  0  0  0
   33.3081   38.6324   56.3720 C   0  0  0  0  0  0  0  0  0  0  0  0
   33.8318   39.5671   55.5006 C   0  0  0  0  0  0  0  0  0  0  0  0
   35.7110   37.5306   53.5739 H   0  0  0  0  0  0  0  0  0  0  0  0
   34.7912   35.8580   55.1274 H   0  0  0  0  0  0  0  0  0  0  0  0
   33.2986   33.7619   60.8404 H   0  0  0  0  0  0  0  0  0  0  0  0
   32.4822   33.4468   63.1397 H   0  0  0  0  0  0  0  0  0  0  0  0
   30.5602   34.7467   63.9559 H   0  0  0  0  0  0  0  0  0  0  0  0
   29.4382   36.3607   62.4754 H   0  0  0  0  0  0  0  0  0  0  0  0
   30.2483   36.6963   60.1766 H   0  0  0  0  0  0  0  0  0  0  0  0
   32.0724   33.4244   58.0794 H   0  0  0  0  0  0  0  0  0  0  0  0
   34.4989   32.9252   56.3548 H   0  0  0  0  0  0  0  0  0  0  0  0
   34.8737   31.8057   54.1968 H   0  0  0  0  0  0  0  0  0  0  0  0
   33.7230   32.6059   52.1746 H   0  0  0  0  0  0  0  0  0  0  0  0
   32.1850   34.5212   52.2999 H   0  0  0  0  0  0  0  0  0  0  0  0
   31.7891   35.6480   54.4502 H   0  0  0  0  0  0  0  0  0  0  0  0
   32.6317   38.9424   57.1548 H   0  0  0  0  0  0  0  0  0  0  0  0
   33.5646   40.6086   55.6022 H   0  0  0  0  0  0  0  0  0  0  0  0
  1  2  2  0  0  0  0
  2  3  2  0  0  0  0
  2  4  1  0  0  0  0
  4 26  2  0  0  0  0
  4  5  1  0  0  0  0
  5  6  2  0  0  0  0
  5 27  1  0  0  0  0
  6  7  1  0  0  0  0
  6 28  1  0  0  0  0
  7  8  1  0  0  0  0
  7 25  2  0  0  0  0
  8 18  1  0  0  0  0
  8  9  1  0  0  0  0
  9 10  2  0  0  0  0
 10 11  1  0  0  0  0
 10 17  1  0  0  0  0
 11 16  2  0  0  0  0
 11 12  1  0  0  0  0
 12 13  2  0  0  0  0
 12 29  1  0  0  0  0
 13 14  1  0  0  0  0
 13 30  1  0  0  0  0
 14 15  2  0  0  0  0
 14 31  1  0  0  0  0
 15 16  1  0  0  0  0
 15 32  1  0  0  0  0
 16 33  1  0  0  0  0
 17 18  2  0  0  0  0
 17 34  1  0  0  0  0
 18 19  1  0  0  0  0
 19 24  2  0  0  0  0
 19 20  1  0  0  0  0
 20 21  2  0  0  0  0
 20 35  1  0  0  0  0
 21 22  1  0  0  0  0
 21 36  1  0  0  0  0
 22 23  2  0  0  0  0
 22 37  1  0  0  0  0
 23 24  1  0  0  0  0
 23 38  1  0  0  0  0
 24 39  1  0  0  0  0
 25 26  1  0  0  0  0
 25 40  1  0  0  0  0
 26 41  1  0  0  0  0
M  END
$$$$
