ZINC000000029021      none
 OpenBabel11202420163D

 41 43  0  0  1  0  0  0  0  0999 V2000
   28.9531   34.7852   67.4851 C   0  0  0  0  0  0  0  0  0  0  0  0
   29.3935   35.3070   66.1160 C   0  0  0  0  0  0  0  0  0  0  0  0
   30.7392   35.8864   66.2225 N   0  0  0  0  0  0  0  0  0  0  0  0
   30.6750   37.2515   66.5350 C   0  0  0  0  0  0  0  0  0  0  0  0
   30.0996   37.9022   67.6200 C   0  0  0  0  0  0  0  0  0  0  0  0
   30.1629   39.2790   67.7168 C   0  0  0  0  0  0  0  0  0  0  0  0
   30.7976   40.0152   66.7338 C   0  0  0  0  0  0  0  0  0  0  0  0
   31.3721   39.3773   65.6514 C   0  0  0  0  0  0  0  0  0  0  0  0
   31.3143   37.9925   65.5457 C   0  0  0  0  0  0  0  0  0  0  0  0
   31.8155   37.1347   64.5570 N   0  0  0  0  0  0  0  0  0  0  0  0
   31.4687   35.7635   64.9500 C   0  0  2  0  0  0  0  0  0  0  0  0
   32.3726   35.1708   65.0901 H   0  0  0  0  0  0  0  0  0  0  0  0
   30.4087   35.0002   63.6914 S   0  0  0  0  0  0  0  0  0  0  0  0
   31.6016   34.3910   62.4681 C   0  0  0  0  0  0  0  0  0  0  0  0
   32.0444   35.5310   61.5874 C   0  0  0  0  0  0  0  0  0  0  0  0
   32.5924   36.4968   62.0753 O   0  0  0  0  0  0  0  0  0  0  0  0
   31.8317   35.4771   60.2576 N   0  0  0  0  0  0  0  0  0  0  0  0
   32.2483   36.5333   59.4389 C   0  0  0  0  0  0  0  0  0  0  0  0
   32.6250   36.2880   58.1250 C   0  0  0  0  0  0  0  0  0  0  0  0
   33.0307   37.3326   57.3178 C   0  0  0  0  0  0  0  0  0  0  0  0
   33.0723   38.6213   57.8206 C   0  0  0  0  0  0  0  0  0  0  0  0
   33.5901   39.9310   56.8055 Cl  0  0  0  0  0  0  0  0  0  0  0  0
   32.7024   38.8676   59.1311 C   0  0  0  0  0  0  0  0  0  0  0  0
   32.2911   37.8273   59.9409 C   0  0  0  0  0  0  0  0  0  0  0  0
   28.8283   35.6235   68.1706 H   0  0  0  0  0  0  0  0  0  0  0  0
   28.0065   34.2542   67.3844 H   0  0  0  0  0  0  0  0  0  0  0  0
   29.7108   34.1059   67.8760 H   0  0  0  0  0  0  0  0  0  0  0  0
   28.6946   36.0713   65.7764 H   0  0  0  0  0  0  0  0  0  0  0  0
   29.4077   34.4842   65.4011 H   0  0  0  0  0  0  0  0  0  0  0  0
   29.6023   37.3304   68.3895 H   0  0  0  0  0  0  0  0  0  0  0  0
   29.7154   39.7809   68.5620 H   0  0  0  0  0  0  0  0  0  0  0  0
   30.8446   41.0915   66.8123 H   0  0  0  0  0  0  0  0  0  0  0  0
   31.8671   39.9559   64.8854 H   0  0  0  0  0  0  0  0  0  0  0  0
   32.3022   37.3983   63.7603 H   0  0  0  0  0  0  0  0  0  0  0  0
   31.1331   33.6202   61.8564 H   0  0  0  0  0  0  0  0  0  0  0  0
   32.4666   33.9715   62.9817 H   0  0  0  0  0  0  0  0  0  0  0  0
   31.3935   34.7047   59.8675 H   0  0  0  0  0  0  0  0  0  0  0  0
   32.5972   35.2818   57.7337 H   0  0  0  0  0  0  0  0  0  0  0  0
   33.3198   37.1431   56.2947 H   0  0  0  0  0  0  0  0  0  0  0  0
   32.7359   39.8742   59.5210 H   0  0  0  0  0  0  0  0  0  0  0  0
   32.0033   38.0200   60.9639 H   0  0  0  0  0  0  0  0  0  0  0  0
  1  2  1  0  0  0  0
  1 25  1  0  0  0  0
  1 26  1  0  0  0  0
  1 27  1  0  0  0  0
  2  3  1  0  0  0  0
  2 28  1  0  0  0  0
  2 29  1  0  0  0  0
  3 11  1  0  0  0  0
  3  4  1  0  0  0  0
  4  9  2  0  0  0  0
  4  5  1  0  0  0  0
  5  6  2  0  0  0  0
  5 30  1  0  0  0  0
  6  7  1  0  0  0  0
  6 31  1  0  0  0  0
  7  8  2  0  0  0  0
  7 32  1  0  0  0  0
  8  9  1  0  0  0  0
  8 33  1  0  0  0  0
  9 10  1  0  0  0  0
 10 11  1  0  0  0  0
 10 34  1  0  0  0  0
 11 12  1  1  0  0  0
 11 13  1  0  0  0  0
 13 14  1  0  0  0  0
 14 15  1  0  0  0  0
 14 35  1  0  0  0  0
 14 36  1  0  0  0  0
 15 16  2  0  0  0  0
 15 17  1  0  0  0  0
 17 18  1  0  0  0  0
 17 37  1  0  0  0  0
 18 24  2  0  0  0  0
 18 19  1  0  0  0  0
 19 20  2  0  0  0  0
 19 38  1  0  0  0  0
 20 21  1  0  0  0  0
 20 39  1  0  0  0  0
 21 22  1  0  0  0  0
 21 23  2  0  0  0  0
 23 24  1  0  0  0  0
 23 40  1  0  0  0  0
 24 41  1  0  0  0  0
M  END
$$$$
