ZINC000000050904      none
 OpenBabel11202420153D

 27 28  0  0  0  0  0  0  0  0999 V2000
   34.4397   37.4607   54.3018 N   0  0  0  0  0  0  0  0  0  0  0  0
   34.4286   38.7433   54.5280 C   0  0  0  0  0  0  0  0  0  0  0  0
   33.9485   39.2275   55.7255 N   0  0  0  0  0  0  0  0  0  0  0  0
   33.4725   38.3403   56.6995 N   0  0  0  0  0  0  0  0  0  0  0  0
   33.0203   38.7965   57.8274 C   0  0  0  0  0  0  0  0  0  0  0  0
   32.5191   37.8626   58.8528 C   0  0  0  0  0  0  0  0  0  0  0  0
   32.0372   38.3497   60.0701 C   0  0  0  0  0  0  0  0  0  0  0  0
   31.5655   37.4706   61.0227 C   0  0  0  0  0  0  0  0  0  0  0  0
   31.5789   36.1086   60.7789 C   0  0  0  0  0  0  0  0  0  0  0  0
   32.0596   35.6187   59.5774 C   0  0  0  0  0  0  0  0  0  0  0  0
   32.5295   36.4863   58.6137 C   0  0  0  0  0  0  0  0  0  0  0  0
   34.9323   39.6818   53.4975 C   0  0  0  0  0  0  0  0  0  0  0  0
   34.9999   40.9942   53.5424 N   0  0  0  0  0  0  0  0  0  0  0  0
   35.4696   41.4068   52.5081 O   0  0  0  0  0  0  0  0  0  0  0  0
   35.7707   40.5704   51.6896 N   0  0  0  0  0  0  0  0  0  0  0  0
   35.4851   39.3776   52.1577 C   0  0  0  0  0  0  0  0  0  0  0  0
   35.6626   38.1409   51.5515 N   0  0  0  0  0  0  0  0  0  0  0  0
   34.1100   36.8464   54.9762 H   0  0  0  0  0  0  0  0  0  0  0  0
   33.9403   40.1827   55.8939 H   0  0  0  0  0  0  0  0  0  0  0  0
   33.0112   39.8601   58.0150 H   0  0  0  0  0  0  0  0  0  0  0  0
   32.0302   39.4122   60.2634 H   0  0  0  0  0  0  0  0  0  0  0  0
   31.1889   37.8461   61.9627 H   0  0  0  0  0  0  0  0  0  0  0  0
   31.2124   35.4247   61.5302 H   0  0  0  0  0  0  0  0  0  0  0  0
   32.0666   34.5544   59.3939 H   0  0  0  0  0  0  0  0  0  0  0  0
   32.9047   36.1025   57.6765 H   0  0  0  0  0  0  0  0  0  0  0  0
   35.4087   37.3303   52.0198 H   0  0  0  0  0  0  0  0  0  0  0  0
   36.0406   38.0878   50.6597 H   0  0  0  0  0  0  0  0  0  0  0  0
  1  2  2  0  0  0  0
  1 18  1  0  0  0  0
  2  3  1  0  0  0  0
  2 12  1  0  0  0  0
  3  4  1  0  0  0  0
  3 19  1  0  0  0  0
  4  5  2  0  0  0  0
  5  6  1  0  0  0  0
  5 20  1  0  0  0  0
  6 11  2  0  0  0  0
  6  7  1  0  0  0  0
  7  8  2  0  0  0  0
  7 21  1  0  0  0  0
  8  9  1  0  0  0  0
  8 22  1  0  0  0  0
  9 10  2  0  0  0  0
  9 23  1  0  0  0  0
 10 11  1  0  0  0  0
 10 24  1  0  0  0  0
 11 25  1  0  0  0  0
 12 16  1  0  0  0  0
 12 13  2  0  0  0  0
 13 14  1  0  0  0  0
 14 15  1  0  0  0  0
 15 16  2  0  0  0  0
 16 17  1  0  0  0  0
 17 26  1  0  0  0  0
 17 27  1  0  0  0  0
M  END
$$$$
