ZINC000000036127      none
 OpenBabel11202420153D

 40 42  0  0  0  0  0  0  0  0999 V2000
   31.1165   39.7146   66.2787 C   0  0  0  0  0  0  0  0  0  0  0  0
   30.7370   39.8462   64.9074 O   0  0  0  0  0  0  0  0  0  0  0  0
   30.9766   38.7825   64.0961 C   0  0  0  0  0  0  0  0  0  0  0  0
   30.6329   38.8414   62.7534 C   0  0  0  0  0  0  0  0  0  0  0  0
   30.8770   37.7585   61.9309 C   0  0  0  0  0  0  0  0  0  0  0  0
   31.4629   36.6166   62.4453 C   0  0  0  0  0  0  0  0  0  0  0  0
   31.7277   35.4366   61.5460 C   0  0  0  0  0  0  0  0  0  0  0  0
   32.3182   35.9034   60.2892 N   0  0  0  0  0  0  0  0  0  0  0  0
   32.1006   35.2204   59.1478 C   0  0  0  0  0  0  0  0  0  0  0  0
   31.4161   34.2193   59.1612 O   0  0  0  0  0  0  0  0  0  0  0  0
   32.7082   35.7005   57.8550 C   0  0  0  0  0  0  0  0  0  0  0  0
   32.8768   37.5021   57.8999 S   0  0  0  0  0  0  0  0  0  0  0  0
   33.5901   37.7823   56.3134 C   0  0  0  0  0  0  0  0  0  0  0  0
   33.8701   36.8482   55.4379 N   0  0  0  0  0  0  0  0  0  0  0  0
   34.4089   37.4124   54.3253 C   0  0  0  0  0  0  0  0  0  0  0  0
   34.8761   36.8919   53.1157 C   0  0  0  0  0  0  0  0  0  0  0  0
   35.3789   37.7405   52.1549 C   0  0  0  0  0  0  0  0  0  0  0  0
   35.4248   39.1085   52.3785 C   0  0  0  0  0  0  0  0  0  0  0  0
   34.9669   39.6382   53.5674 C   0  0  0  0  0  0  0  0  0  0  0  0
   34.4581   38.7985   54.5465 C   0  0  0  0  0  0  0  0  0  0  0  0
   33.9286   39.0065   55.8097 N   0  0  0  0  0  0  0  0  0  0  0  0
   33.8203   39.8617   56.2545 H   0  0  0  0  0  0  0  0  0  0  0  0
   31.8013   36.5534   63.7843 C   0  0  0  0  0  0  0  0  0  0  0  0
   31.5648   37.6357   64.6096 C   0  0  0  0  0  0  0  0  0  0  0  0
   30.5790   38.8786   66.7259 H   0  0  0  0  0  0  0  0  0  0  0  0
   32.1894   39.5330   66.3431 H   0  0  0  0  0  0  0  0  0  0  0  0
   30.8706   40.6322   66.8134 H   0  0  0  0  0  0  0  0  0  0  0  0
   30.1747   39.7328   62.3513 H   0  0  0  0  0  0  0  0  0  0  0  0
   30.6097   37.8039   60.8855 H   0  0  0  0  0  0  0  0  0  0  0  0
   30.7901   34.9212   61.3375 H   0  0  0  0  0  0  0  0  0  0  0  0
   32.4172   34.7515   62.0390 H   0  0  0  0  0  0  0  0  0  0  0  0
   32.8658   36.7040   60.2784 H   0  0  0  0  0  0  0  0  0  0  0  0
   33.6907   35.2467   57.7247 H   0  0  0  0  0  0  0  0  0  0  0  0
   32.0636   35.4165   57.0231 H   0  0  0  0  0  0  0  0  0  0  0  0
   34.8433   35.8277   52.9351 H   0  0  0  0  0  0  0  0  0  0  0  0
   35.7401   37.3378   51.2202 H   0  0  0  0  0  0  0  0  0  0  0  0
   35.8212   39.7636   51.6169 H   0  0  0  0  0  0  0  0  0  0  0  0
   35.0053   40.7044   53.7353 H   0  0  0  0  0  0  0  0  0  0  0  0
   32.2543   35.6585   64.1847 H   0  0  0  0  0  0  0  0  0  0  0  0
   31.8328   37.5872   65.6547 H   0  0  0  0  0  0  0  0  0  0  0  0
  1  2  1  0  0  0  0
  1 25  1  0  0  0  0
  1 26  1  0  0  0  0
  1 27  1  0  0  0  0
  2  3  1  0  0  0  0
  3 24  2  0  0  0  0
  3  4  1  0  0  0  0
  4  5  2  0  0  0  0
  4 28  1  0  0  0  0
  5  6  1  0  0  0  0
  5 29  1  0  0  0  0
  6  7  1  0  0  0  0
  6 23  2  0  0  0  0
  7  8  1  0  0  0  0
  7 30  1  0  0  0  0
  7 31  1  0  0  0  0
  8  9  1  0  0  0  0
  8 32  1  0  0  0  0
  9 10  2  0  0  0  0
  9 11  1  0  0  0  0
 11 12  1  0  0  0  0
 11 33  1  0  0  0  0
 11 34  1  0  0  0  0
 12 13  1  0  0  0  0
 13 21  1  0  0  0  0
 13 14  2  0  0  0  0
 14 15  1  0  0  0  0
 15 20  2  0  0  0  0
 15 16  1  0  0  0  0
 16 17  2  0  0  0  0
 16 35  1  0  0  0  0
 17 18  1  0  0  0  0
 17 36  1  0  0  0  0
 18 19  2  0  0  0  0
 18 37  1  0  0  0  0
 19 20  1  0  0  0  0
 19 38  1  0  0  0  0
 20 21  1  0  0  0  0
 21 22  1  0  0  0  0
 23 24  1  0  0  0  0
 23 39  1  0  0  0  0
 24 40  1  0  0  0  0
M  END
$$$$
