ZINC000000033514      none
 OpenBabel11202420153D

 35 38  0  0  0  0  0  0  0  0999 V2000
   31.1260   33.7993   62.4466 C   0  0  0  0  0  0  0  0  0  0  0  0
   31.4184   33.0367   61.3778 C   0  0  0  0  0  0  0  0  0  0  0  0
   31.8100   33.8418   60.3766 O   0  0  0  0  0  0  0  0  0  0  0  0
   31.7827   35.1186   60.7920 C   0  0  0  0  0  0  0  0  0  0  0  0
   32.1552   36.3225   59.9654 C   0  0  0  0  0  0  0  0  0  0  0  0
   32.5567   35.8890   58.6248 N   0  0  0  0  0  0  0  0  0  0  0  0
   32.9436   36.8230   57.6842 C   0  0  0  0  0  0  0  0  0  0  0  0
   32.9490   38.1005   57.9991 N   0  0  0  0  0  0  0  0  0  0  0  0
   33.3205   39.0056   57.0840 C   0  0  0  0  0  0  0  0  0  0  0  0
   33.4516   40.3086   57.0101 N   0  0  0  0  0  0  0  0  0  0  0  0
   33.8426   40.6061   55.9005 O   0  0  0  0  0  0  0  0  0  0  0  0
   34.0220   39.6865   55.1294 N   0  0  0  0  0  0  0  0  0  0  0  0
   33.7306   38.5582   55.7315 C   0  0  0  0  0  0  0  0  0  0  0  0
   33.7228   37.2524   55.4327 N   0  0  0  0  0  0  0  0  0  0  0  0
   33.3504   36.3797   56.3445 C   0  0  0  0  0  0  0  0  0  0  0  0
   33.3416   35.0333   56.0382 N   0  0  0  0  0  0  0  0  0  0  0  0
   33.7456   34.5829   54.7040 C   0  0  0  0  0  0  0  0  0  0  0  0
   34.3517   33.2066   54.8005 C   0  0  0  0  0  0  0  0  0  0  0  0
   34.4990   32.4893   55.9289 C   0  0  0  0  0  0  0  0  0  0  0  0
   35.1079   31.2675   55.5610 C   0  0  0  0  0  0  0  0  0  0  0  0
   35.2966   31.3114   54.2299 C   0  0  0  0  0  0  0  0  0  0  0  0
   34.8313   32.4858   53.7738 O   0  0  0  0  0  0  0  0  0  0  0  0
   31.3609   35.1413   62.0690 C   0  0  0  0  0  0  0  0  0  0  0  0
   30.7789   33.4527   63.4088 H   0  0  0  0  0  0  0  0  0  0  0  0
   31.3466   31.9601   61.3312 H   0  0  0  0  0  0  0  0  0  0  0  0
   32.9837   36.8473   60.4409 H   0  0  0  0  0  0  0  0  0  0  0  0
   31.2974   36.9905   59.8894 H   0  0  0  0  0  0  0  0  0  0  0  0
   32.5510   34.9459   58.3979 H   0  0  0  0  0  0  0  0  0  0  0  0
   33.0680   34.3857   56.7065 H   0  0  0  0  0  0  0  0  0  0  0  0
   32.8729   34.5507   54.0518 H   0  0  0  0  0  0  0  0  0  0  0  0
   34.4804   35.2756   54.2936 H   0  0  0  0  0  0  0  0  0  0  0  0
   34.2073   32.7889   56.9247 H   0  0  0  0  0  0  0  0  0  0  0  0
   35.3717   30.4551   56.2220 H   0  0  0  0  0  0  0  0  0  0  0  0
   35.7427   30.5325   53.6292 H   0  0  0  0  0  0  0  0  0  0  0  0
   31.2267   36.0168   62.6871 H   0  0  0  0  0  0  0  0  0  0  0  0
  1 23  1  0  0  0  0
  1  2  2  0  0  0  0
  1 24  1  0  0  0  0
  2  3  1  0  0  0  0
  2 25  1  0  0  0  0
  3  4  1  0  0  0  0
  4  5  1  0  0  0  0
  4 23  2  0  0  0  0
  5  6  1  0  0  0  0
  5 26  1  0  0  0  0
  5 27  1  0  0  0  0
  6  7  1  0  0  0  0
  6 28  1  0  0  0  0
  7 15  1  0  0  0  0
  7  8  2  0  0  0  0
  8  9  1  0  0  0  0
  9 13  1  0  0  0  0
  9 10  2  0  0  0  0
 10 11  1  0  0  0  0
 11 12  1  0  0  0  0
 12 13  2  0  0  0  0
 13 14  1  0  0  0  0
 14 15  2  0  0  0  0
 15 16  1  0  0  0  0
 16 17  1  0  0  0  0
 16 29  1  0  0  0  0
 17 18  1  0  0  0  0
 17 30  1  0  0  0  0
 17 31  1  0  0  0  0
 18 22  1  0  0  0  0
 18 19  2  0  0  0  0
 19 20  1  0  0  0  0
 19 32  1  0  0  0  0
 20 21  2  0  0  0  0
 20 33  1  0  0  0  0
 21 22  1  0  0  0  0
 21 34  1  0  0  0  0
 23 35  1  0  0  0  0
M  END
$$$$
