ZINC000000054898      none
 OpenBabel11202420153D

 28 29  0  0  0  0  0  0  0  0999 V2000
   34.6651   32.1339   55.5833 C   0  0  0  0  0  0  0  0  0  0  0  0
   34.4399   33.3588   54.6947 C   0  0  0  0  0  0  0  0  0  0  0  0
   34.4530   34.5589   55.5122 O   0  0  0  0  0  0  0  0  0  0  0  0
   33.2726   34.9658   56.0208 C   0  0  0  0  0  0  0  0  0  0  0  0
   32.2600   34.3345   55.7871 O   0  0  0  0  0  0  0  0  0  0  0  0
   33.2098   36.1718   56.8571 C   0  0  0  0  0  0  0  0  0  0  0  0
   33.5606   37.4384   56.5012 C   0  0  0  0  0  0  0  0  0  0  0  0
   34.0909   37.8429   55.1498 C   0  0  0  0  0  0  0  0  0  0  0  0
   33.3602   38.2707   57.5290 O   0  0  0  0  0  0  0  0  0  0  0  0
   32.8822   37.6142   58.6074 C   0  0  0  0  0  0  0  0  0  0  0  0
   32.5253   38.0252   59.8861 C   0  0  0  0  0  0  0  0  0  0  0  0
   32.0500   37.1075   60.7984 C   0  0  0  0  0  0  0  0  0  0  0  0
   31.5670   37.6769   62.5358 Br  0  0  0  0  0  0  0  0  0  0  0  0
   31.9222   35.7653   60.4520 C   0  0  0  0  0  0  0  0  0  0  0  0
   31.4515   34.8710   61.3616 O   0  0  0  0  0  0  0  0  0  0  0  0
   32.2731   35.3408   59.1837 C   0  0  0  0  0  0  0  0  0  0  0  0
   32.7534   36.2623   58.2590 C   0  0  0  0  0  0  0  0  0  0  0  0
   34.6553   31.2332   54.9697 H   0  0  0  0  0  0  0  0  0  0  0  0
   35.6287   32.2212   56.0853 H   0  0  0  0  0  0  0  0  0  0  0  0
   33.8715   32.0747   56.3282 H   0  0  0  0  0  0  0  0  0  0  0  0
   33.4764   33.2715   54.1927 H   0  0  0  0  0  0  0  0  0  0  0  0
   35.2336   33.4181   53.9499 H   0  0  0  0  0  0  0  0  0  0  0  0
   33.2594   38.1150   54.4998 H   0  0  0  0  0  0  0  0  0  0  0  0
   34.7588   38.6969   55.2624 H   0  0  0  0  0  0  0  0  0  0  0  0
   34.6382   37.0092   54.7099 H   0  0  0  0  0  0  0  0  0  0  0  0
   32.6204   39.0641   60.1653 H   0  0  0  0  0  0  0  0  0  0  0  0
   31.2327   35.2604   62.2192 H   0  0  0  0  0  0  0  0  0  0  0  0
   32.1745   34.2999   58.9126 H   0  0  0  0  0  0  0  0  0  0  0  0
  1  2  1  0  0  0  0
  1 18  1  0  0  0  0
  1 19  1  0  0  0  0
  1 20  1  0  0  0  0
  2  3  1  0  0  0  0
  2 21  1  0  0  0  0
  2 22  1  0  0  0  0
  3  4  1  0  0  0  0
  4  5  2  0  0  0  0
  4  6  1  0  0  0  0
  6 17  1  0  0  0  0
  6  7  2  0  0  0  0
  7  8  1  0  0  0  0
  7  9  1  0  0  0  0
  8 23  1  0  0  0  0
  8 24  1  0  0  0  0
  8 25  1  0  0  0  0
  9 10  1  0  0  0  0
 10 17  2  0  0  0  0
 10 11  1  0  0  0  0
 11 12  2  0  0  0  0
 11 26  1  0  0  0  0
 12 13  1  0  0  0  0
 12 14  1  0  0  0  0
 14 15  1  0  0  0  0
 14 16  2  0  0  0  0
 15 27  1  0  0  0  0
 16 17  1  0  0  0  0
 16 28  1  0  0  0  0
M  END
$$$$
