ZINC000000000883      none
 OpenBabel11202420153D

 35 38  0  0  0  0  0  0  0  0999 V2000
   32.6004   36.5550   62.7626 C   0  0  0  0  0  0  0  0  0  0  0  0
   31.4620   36.2465   61.7880 C   0  0  0  0  0  0  0  0  0  0  0  0
   30.2848   37.1961   62.0190 C   0  0  0  0  0  0  0  0  0  0  0  0
   30.9995   34.8117   61.9252 C   0  0  0  0  0  0  0  0  0  0  0  0
   30.5314   34.2989   62.9195 O   0  0  0  0  0  0  0  0  0  0  0  0
   31.2170   34.2086   60.7448 N   0  0  0  0  0  0  0  0  0  0  0  0
   31.7687   35.0767   59.8004 C   0  0  0  0  0  0  0  0  0  0  0  0
   32.1394   34.8547   58.4792 C   0  0  0  0  0  0  0  0  0  0  0  0
   32.6695   35.8902   57.7259 C   0  0  0  0  0  0  0  0  0  0  0  0
   33.1171   35.9935   56.4235 N   0  0  0  0  0  0  0  0  0  0  0  0
   33.1332   35.2839   55.7624 H   0  0  0  0  0  0  0  0  0  0  0  0
   33.5343   37.2852   56.2397 C   0  0  0  0  0  0  0  0  0  0  0  0
   34.0900   37.8288   54.9806 C   0  0  0  0  0  0  0  0  0  0  0  0
   34.4845   39.1681   54.8880 C   0  0  0  0  0  0  0  0  0  0  0  0
   35.0024   39.6320   53.6959 C   0  0  0  0  0  0  0  0  0  0  0  0
   35.1172   38.8346   52.6514 N   0  0  0  0  0  0  0  0  0  0  0  0
   34.7525   37.5677   52.6943 C   0  0  0  0  0  0  0  0  0  0  0  0
   34.2301   37.0195   53.8479 C   0  0  0  0  0  0  0  0  0  0  0  0
   33.3673   37.9668   57.3454 N   0  0  0  0  0  0  0  0  0  0  0  0
   32.8380   37.1643   58.2993 C   0  0  0  0  0  0  0  0  0  0  0  0
   32.4661   37.3704   59.6329 C   0  0  0  0  0  0  0  0  0  0  0  0
   31.9476   36.3425   60.3589 C   0  0  0  0  0  0  0  0  0  0  0  0
   32.9702   37.5643   62.5814 H   0  0  0  0  0  0  0  0  0  0  0  0
   32.2326   36.4811   63.7860 H   0  0  0  0  0  0  0  0  0  0  0  0
   33.4093   35.8397   62.6147 H   0  0  0  0  0  0  0  0  0  0  0  0
   29.4672   36.9310   61.3487 H   0  0  0  0  0  0  0  0  0  0  0  0
   29.9487   37.1134   63.0525 H   0  0  0  0  0  0  0  0  0  0  0  0
   30.6000   38.2205   61.8202 H   0  0  0  0  0  0  0  0  0  0  0  0
   31.0136   33.2767   60.5686 H   0  0  0  0  0  0  0  0  0  0  0  0
   32.0103   33.8771   58.0386 H   0  0  0  0  0  0  0  0  0  0  0  0
   34.3889   39.8277   55.7377 H   0  0  0  0  0  0  0  0  0  0  0  0
   35.3141   40.6629   53.6160 H   0  0  0  0  0  0  0  0  0  0  0  0
   34.8644   36.9511   51.8149 H   0  0  0  0  0  0  0  0  0  0  0  0
   33.9340   35.9812   53.8762 H   0  0  0  0  0  0  0  0  0  0  0  0
   32.5899   38.3435   60.0848 H   0  0  0  0  0  0  0  0  0  0  0  0
  1  2  1  0  0  0  0
  1 23  1  0  0  0  0
  1 24  1  0  0  0  0
  1 25  1  0  0  0  0
  2 22  1  0  0  0  0
  2  3  1  0  0  0  0
  2  4  1  0  0  0  0
  3 26  1  0  0  0  0
  3 27  1  0  0  0  0
  3 28  1  0  0  0  0
  4  5  2  0  0  0  0
  4  6  1  0  0  0  0
  6  7  1  0  0  0  0
  6 29  1  0  0  0  0
  7 22  2  0  0  0  0
  7  8  1  0  0  0  0
  8  9  2  0  0  0  0
  8 30  1  0  0  0  0
  9 20  1  0  0  0  0
  9 10  1  0  0  0  0
 10 11  1  0  0  0  0
 10 12  1  0  0  0  0
 12 13  1  0  0  0  0
 12 19  2  0  0  0  0
 13 18  2  0  0  0  0
 13 14  1  0  0  0  0
 14 15  2  0  0  0  0
 14 31  1  0  0  0  0
 15 16  1  0  0  0  0
 15 32  1  0  0  0  0
 16 17  2  0  0  0  0
 17 18  1  0  0  0  0
 17 33  1  0  0  0  0
 18 34  1  0  0  0  0
 19 20  1  0  0  0  0
 20 21  2  0  0  0  0
 21 22  1  0  0  0  0
 21 35  1  0  0  0  0
M  END
$$$$
