ZINC000000027645      none
 OpenBabel11202420153D

 35 35  0  0  0  0  0  0  0  0999 V2000
   34.1086   40.0494   55.9895 C   0  0  0  0  0  0  0  0  0  0  0  0
   33.5988   38.8196   56.7436 C   0  0  0  0  0  0  0  0  0  0  0  0
   33.2389   39.2001   58.1118 N   0  0  0  0  0  0  0  0  0  0  0  0
   32.7509   38.2506   58.9864 C   0  0  0  0  0  0  0  0  0  0  0  0
   32.4297   38.5943   60.2295 N   0  0  0  0  0  0  0  0  0  0  0  0
   31.9597   37.6791   61.0709 C   0  0  0  0  0  0  0  0  0  0  0  0
   31.6254   38.0351   62.3617 N   0  0  0  0  0  0  0  0  0  0  0  0
   31.1075   37.0262   63.2890 C   0  0  0  0  0  0  0  0  0  0  0  0
   29.5822   36.9704   63.1821 C   0  0  0  0  0  0  0  0  0  0  0  0
   31.8112   36.4205   60.6686 N   0  0  0  0  0  0  0  0  0  0  0  0
   32.1322   36.0778   59.4267 C   0  0  0  0  0  0  0  0  0  0  0  0
   31.9808   34.7970   59.0182 O   0  0  0  0  0  0  0  0  0  0  0  0
   32.3610   34.5728   57.6727 N   0  0  0  0  0  0  0  0  0  0  0  0
   31.7840   33.6584   56.9887 C   0  0  0  0  0  0  0  0  0  0  0  0
   30.6996   32.8199   57.6150 C   0  0  0  0  0  0  0  0  0  0  0  0
   32.1886   33.4198   55.5568 C   0  0  0  0  0  0  0  0  0  0  0  0
   32.5967   36.9926   58.5839 N   0  0  0  0  0  0  0  0  0  0  0  0
   34.9858   40.4496   56.4980 H   0  0  0  0  0  0  0  0  0  0  0  0
   34.3763   39.7663   54.9716 H   0  0  0  0  0  0  0  0  0  0  0  0
   33.3268   40.8084   55.9620 H   0  0  0  0  0  0  0  0  0  0  0  0
   34.3806   38.0604   56.7713 H   0  0  0  0  0  0  0  0  0  0  0  0
   32.7216   38.4195   56.2352 H   0  0  0  0  0  0  0  0  0  0  0  0
   33.3476   40.1185   58.4043 H   0  0  0  0  0  0  0  0  0  0  0  0
   31.7334   38.9535   62.6550 H   0  0  0  0  0  0  0  0  0  0  0  0
   31.5253   36.0518   63.0362 H   0  0  0  0  0  0  0  0  0  0  0  0
   31.3908   37.2898   64.3080 H   0  0  0  0  0  0  0  0  0  0  0  0
   29.1968   36.2196   63.8720 H   0  0  0  0  0  0  0  0  0  0  0  0
   29.1643   37.9447   63.4348 H   0  0  0  0  0  0  0  0  0  0  0  0
   29.2989   36.7068   62.1630 H   0  0  0  0  0  0  0  0  0  0  0  0
   29.7327   33.2965   57.4535 H   0  0  0  0  0  0  0  0  0  0  0  0
   30.6972   31.8296   57.1593 H   0  0  0  0  0  0  0  0  0  0  0  0
   30.8847   32.7267   58.6851 H   0  0  0  0  0  0  0  0  0  0  0  0
   32.9915   32.6835   55.5240 H   0  0  0  0  0  0  0  0  0  0  0  0
   31.3319   33.0485   54.9941 H   0  0  0  0  0  0  0  0  0  0  0  0
   32.5348   34.3549   55.1166 H   0  0  0  0  0  0  0  0  0  0  0  0
  1  2  1  0  0  0  0
  1 18  1  0  0  0  0
  1 19  1  0  0  0  0
  1 20  1  0  0  0  0
  2  3  1  0  0  0  0
  2 21  1  0  0  0  0
  2 22  1  0  0  0  0
  3  4  1  0  0  0  0
  3 23  1  0  0  0  0
  4 17  2  0  0  0  0
  4  5  1  0  0  0  0
  5  6  2  0  0  0  0
  6  7  1  0  0  0  0
  6 10  1  0  0  0  0
  7  8  1  0  0  0  0
  7 24  1  0  0  0  0
  8  9  1  0  0  0  0
  8 25  1  0  0  0  0
  8 26  1  0  0  0  0
  9 27  1  0  0  0  0
  9 28  1  0  0  0  0
  9 29  1  0  0  0  0
 10 11  2  0  0  0  0
 11 12  1  0  0  0  0
 11 17  1  0  0  0  0
 12 13  1  0  0  0  0
 13 14  2  0  0  0  0
 14 15  1  0  0  0  0
 14 16  1  0  0  0  0
 15 30  1  0  0  0  0
 15 31  1  0  0  0  0
 15 32  1  0  0  0  0
 16 33  1  0  0  0  0
 16 34  1  0  0  0  0
 16 35  1  0  0  0  0
M  END
$$$$
