ZINC000000033523      none
 OpenBabel11202420153D

 34 37  0  0  0  0  0  0  0  0999 V2000
   34.1706   39.5285   55.7413 F   0  0  0  0  0  0  0  0  0  0  0  0
   33.6474   38.6115   56.5844 C   0  0  0  0  0  0  0  0  0  0  0  0
   33.4542   37.3084   56.1576 C   0  0  0  0  0  0  0  0  0  0  0  0
   32.9186   36.3715   57.0206 C   0  0  0  0  0  0  0  0  0  0  0  0
   32.5806   36.7335   58.3115 C   0  0  0  0  0  0  0  0  0  0  0  0
   32.7682   38.0351   58.7371 C   0  0  0  0  0  0  0  0  0  0  0  0
   32.3945   38.4293   60.1427 C   0  0  0  0  0  0  0  0  0  0  0  0
   30.7714   37.7401   60.5512 S   0  0  0  0  0  0  0  0  0  0  0  0
   30.5908   38.3387   62.1986 C   0  0  0  0  0  0  0  0  0  0  0  0
   30.5801   39.5989   62.5762 N   0  0  0  0  0  0  0  0  0  0  0  0
   30.4307   39.6861   63.8487 N   0  0  0  0  0  0  0  0  0  0  0  0
   30.3310   38.5120   64.3710 N   0  0  0  0  0  0  0  0  0  0  0  0
   30.4368   37.5870   63.3176 N   0  0  0  0  0  0  0  0  0  0  0  0
   30.3876   36.1873   63.4040 C   0  0  0  0  0  0  0  0  0  0  0  0
   31.4663   35.4270   62.9735 C   0  0  0  0  0  0  0  0  0  0  0  0
   31.4197   34.0489   63.0580 C   0  0  0  0  0  0  0  0  0  0  0  0
   30.2958   33.4214   63.5715 C   0  0  0  0  0  0  0  0  0  0  0  0
   29.2119   34.1818   64.0042 C   0  0  0  0  0  0  0  0  0  0  0  0
   29.2602   35.5630   63.9195 C   0  0  0  0  0  0  0  0  0  0  0  0
   28.2414   33.3375   64.4612 O   0  0  0  0  0  0  0  0  0  0  0  0
   28.9015   32.0774   64.6838 C   0  0  0  0  0  0  0  0  0  0  0  0
   30.0038   32.1004   63.7579 O   0  0  0  0  0  0  0  0  0  0  0  0
   33.3037   38.9740   57.8755 C   0  0  0  0  0  0  0  0  0  0  0  0
   33.7216   37.0245   55.1505 H   0  0  0  0  0  0  0  0  0  0  0  0
   32.7679   35.3551   56.6880 H   0  0  0  0  0  0  0  0  0  0  0  0
   32.1663   35.9995   58.9868 H   0  0  0  0  0  0  0  0  0  0  0  0
   32.3570   39.5161   60.2175 H   0  0  0  0  0  0  0  0  0  0  0  0
   33.1390   38.0427   60.8386 H   0  0  0  0  0  0  0  0  0  0  0  0
   32.3431   35.9134   62.5722 H   0  0  0  0  0  0  0  0  0  0  0  0
   32.2603   33.4594   62.7229 H   0  0  0  0  0  0  0  0  0  0  0  0
   28.4208   36.1545   64.2540 H   0  0  0  0  0  0  0  0  0  0  0  0
   28.2301   31.2486   64.4598 H   0  0  0  0  0  0  0  0  0  0  0  0
   29.2643   32.0112   65.7096 H   0  0  0  0  0  0  0  0  0  0  0  0
   33.4536   39.9902   58.2094 H   0  0  0  0  0  0  0  0  0  0  0  0
  1  2  1  0  0  0  0
  2 23  2  0  0  0  0
  2  3  1  0  0  0  0
  3  4  2  0  0  0  0
  3 24  1  0  0  0  0
  4  5  1  0  0  0  0
  4 25  1  0  0  0  0
  5  6  2  0  0  0  0
  5 26  1  0  0  0  0
  6  7  1  0  0  0  0
  6 23  1  0  0  0  0
  7  8  1  0  0  0  0
  7 27  1  0  0  0  0
  7 28  1  0  0  0  0
  8  9  1  0  0  0  0
  9 13  1  0  0  0  0
  9 10  2  0  0  0  0
 10 11  1  0  0  0  0
 11 12  2  0  0  0  0
 12 13  1  0  0  0  0
 13 14  1  0  0  0  0
 14 19  2  0  0  0  0
 14 15  1  0  0  0  0
 15 16  2  0  0  0  0
 15 29  1  0  0  0  0
 16 17  1  0  0  0  0
 16 30  1  0  0  0  0
 17 22  1  0  0  0  0
 17 18  2  0  0  0  0
 18 19  1  0  0  0  0
 18 20  1  0  0  0  0
 19 31  1  0  0  0  0
 20 21  1  0  0  0  0
 21 22  1  0  0  0  0
 21 32  1  0  0  0  0
 21 33  1  0  0  0  0
 23 34  1  0  0  0  0
M  END
$$$$
