ZINC000000026872      none
 OpenBabel11202420153D

 33 36  0  0  0  0  0  0  0  0999 V2000
   30.9559   38.2322   64.9659 C   0  0  0  0  0  0  0  0  0  0  0  0
   29.6543   38.2410   64.4993 C   0  0  0  0  0  0  0  0  0  0  0  0
   29.3848   37.8743   63.1935 C   0  0  0  0  0  0  0  0  0  0  0  0
   30.4171   37.5100   62.3534 C   0  0  0  0  0  0  0  0  0  0  0  0
   31.7224   37.5061   62.8199 C   0  0  0  0  0  0  0  0  0  0  0  0
   31.9905   37.8667   64.1244 C   0  0  0  0  0  0  0  0  0  0  0  0
   32.6200   37.0671   61.6804 C   0  0  0  0  0  0  0  0  0  0  0  0
   31.8305   37.3777   60.4565 N   0  0  0  0  0  0  0  0  0  0  0  0
   32.2047   36.5582   59.4027 C   0  0  0  0  0  0  0  0  0  0  0  0
   32.0866   35.1799   59.4918 C   0  0  0  0  0  0  0  0  0  0  0  0
   32.4697   34.3864   58.4195 C   0  0  0  0  0  0  0  0  0  0  0  0
   32.9459   34.9028   57.3104 N   0  0  0  0  0  0  0  0  0  0  0  0
   33.0872   36.2239   57.1548 C   0  0  0  0  0  0  0  0  0  0  0  0
   33.5988   36.7613   55.9608 C   0  0  0  0  0  0  0  0  0  0  0  0
   33.7146   38.1106   55.8224 C   0  0  0  0  0  0  0  0  0  0  0  0
   33.3517   38.9720   56.8549 C   0  0  0  0  0  0  0  0  0  0  0  0
   32.8581   38.4863   58.0283 C   0  0  0  0  0  0  0  0  0  0  0  0
   32.7139   37.1026   58.1995 C   0  0  0  0  0  0  0  0  0  0  0  0
   30.4426   37.0737   60.9024 C   0  0  0  0  0  0  0  0  0  0  0  0
   31.1650   38.5150   65.9871 H   0  0  0  0  0  0  0  0  0  0  0  0
   28.8474   38.5305   65.1561 H   0  0  0  0  0  0  0  0  0  0  0  0
   28.3677   37.8774   62.8301 H   0  0  0  0  0  0  0  0  0  0  0  0
   33.0075   37.8640   64.4879 H   0  0  0  0  0  0  0  0  0  0  0  0
   33.5513   37.6333   61.6880 H   0  0  0  0  0  0  0  0  0  0  0  0
   32.8236   35.9982   61.7448 H   0  0  0  0  0  0  0  0  0  0  0  0
   31.6978   34.7257   60.3912 H   0  0  0  0  0  0  0  0  0  0  0  0
   32.3729   33.3137   58.4997 H   0  0  0  0  0  0  0  0  0  0  0  0
   33.8850   36.1068   55.1507 H   0  0  0  0  0  0  0  0  0  0  0  0
   34.1028   38.5190   54.9011 H   0  0  0  0  0  0  0  0  0  0  0  0
   33.4626   40.0382   56.7237 H   0  0  0  0  0  0  0  0  0  0  0  0
   32.5792   39.1637   58.8219 H   0  0  0  0  0  0  0  0  0  0  0  0
   30.2409   36.0056   60.8211 H   0  0  0  0  0  0  0  0  0  0  0  0
   29.7205   37.6450   60.3190 H   0  0  0  0  0  0  0  0  0  0  0  0
  1  6  2  0  0  0  0
  1  2  1  0  0  0  0
  1 20  1  0  0  0  0
  2  3  2  0  0  0  0
  2 21  1  0  0  0  0
  3  4  1  0  0  0  0
  3 22  1  0  0  0  0
  4 19  1  0  0  0  0
  4  5  2  0  0  0  0
  5  6  1  0  0  0  0
  5  7  1  0  0  0  0
  6 23  1  0  0  0  0
  7  8  1  0  0  0  0
  7 24  1  0  0  0  0
  7 25  1  0  0  0  0
  8  9  1  0  0  0  0
  8 19  1  0  0  0  0
  9 18  2  0  0  0  0
  9 10  1  0  0  0  0
 10 11  2  0  0  0  0
 10 26  1  0  0  0  0
 11 12  1  0  0  0  0
 11 27  1  0  0  0  0
 12 13  2  0  0  0  0
 13 18  1  0  0  0  0
 13 14  1  0  0  0  0
 14 15  2  0  0  0  0
 14 28  1  0  0  0  0
 15 16  1  0  0  0  0
 15 29  1  0  0  0  0
 16 17  2  0  0  0  0
 16 30  1  0  0  0  0
 17 18  1  0  0  0  0
 17 31  1  0  0  0  0
 19 32  1  0  0  0  0
 19 33  1  0  0  0  0
M  END
$$$$
