ZINC000000041525      none
 OpenBabel11202420153D

 37 38  0  0  0  0  0  0  0  0999 V2000
   30.8279   40.6053   66.5748 C   0  0  0  0  0  0  0  0  0  0  0  0
   31.4394   39.3985   65.8604 C   0  0  0  0  0  0  0  0  0  0  0  0
   31.2964   39.5584   64.4476 O   0  0  0  0  0  0  0  0  0  0  0  0
   31.1820   38.4242   63.7065 C   0  0  0  0  0  0  0  0  0  0  0  0
   30.4495   38.4367   62.5285 C   0  0  0  0  0  0  0  0  0  0  0  0
   30.3376   37.2866   61.7724 C   0  0  0  0  0  0  0  0  0  0  0  0
   30.9486   36.1145   62.1976 C   0  0  0  0  0  0  0  0  0  0  0  0
   30.8299   34.9456   61.4343 N   0  0  0  0  0  0  0  0  0  0  0  0
   31.8182   34.0291   61.4472 C   0  0  0  0  0  0  0  0  0  0  0  0
   32.8102   34.2165   62.1194 O   0  0  0  0  0  0  0  0  0  0  0  0
   31.6906   32.7718   60.6262 C   0  0  0  0  0  0  0  0  0  0  0  0
   30.6888   33.1097   59.1570 S   0  0  0  0  0  0  0  0  0  0  0  0
   31.6691   34.3628   58.3999 C   0  0  0  0  0  0  0  0  0  0  0  0
   31.9823   35.5203   58.9340 N   0  0  0  0  0  0  0  0  0  0  0  0
   32.7403   36.2173   58.0710 C   0  0  0  0  0  0  0  0  0  0  0  0
   32.9084   35.4768   56.9622 C   0  0  0  0  0  0  0  0  0  0  0  0
   32.2352   34.2929   57.1640 N   0  0  0  0  0  0  0  0  0  0  0  0
   32.1426   33.1720   56.2253 C   0  0  0  0  0  0  0  0  0  0  0  0
   31.6769   36.1013   63.3796 C   0  0  0  0  0  0  0  0  0  0  0  0
   31.7930   37.2536   64.1316 C   0  0  0  0  0  0  0  0  0  0  0  0
   30.9368   40.4833   67.6525 H   0  0  0  0  0  0  0  0  0  0  0  0
   31.3409   41.5134   66.2582 H   0  0  0  0  0  0  0  0  0  0  0  0
   29.7699   40.6790   66.3226 H   0  0  0  0  0  0  0  0  0  0  0  0
   30.9263   38.4904   66.1771 H   0  0  0  0  0  0  0  0  0  0  0  0
   32.4973   39.3247   66.1125 H   0  0  0  0  0  0  0  0  0  0  0  0
   29.9700   39.3472   62.2005 H   0  0  0  0  0  0  0  0  0  0  0  0
   29.7710   37.2976   60.8530 H   0  0  0  0  0  0  0  0  0  0  0  0
   30.0366   34.7958   60.8966 H   0  0  0  0  0  0  0  0  0  0  0  0
   32.6814   32.4352   60.3208 H   0  0  0  0  0  0  0  0  0  0  0  0
   31.2109   31.9957   61.2224 H   0  0  0  0  0  0  0  0  0  0  0  0
   33.1455   37.2041   58.2396 H   0  0  0  0  0  0  0  0  0  0  0  0
   33.4691   35.7554   56.0821 H   0  0  0  0  0  0  0  0  0  0  0  0
   31.2736   33.3080   55.5815 H   0  0  0  0  0  0  0  0  0  0  0  0
   33.0447   33.1340   55.6147 H   0  0  0  0  0  0  0  0  0  0  0  0
   32.0407   32.2401   56.7812 H   0  0  0  0  0  0  0  0  0  0  0  0
   32.1521   35.1898   63.7111 H   0  0  0  0  0  0  0  0  0  0  0  0
   32.3595   37.2434   65.0510 H   0  0  0  0  0  0  0  0  0  0  0  0
  1  2  1  0  0  0  0
  1 21  1  0  0  0  0
  1 22  1  0  0  0  0
  1 23  1  0  0  0  0
  2  3  1  0  0  0  0
  2 24  1  0  0  0  0
  2 25  1  0  0  0  0
  3  4  1  0  0  0  0
  4 20  2  0  0  0  0
  4  5  1  0  0  0  0
  5  6  2  0  0  0  0
  5 26  1  0  0  0  0
  6  7  1  0  0  0  0
  6 27  1  0  0  0  0
  7  8  1  0  0  0  0
  7 19  2  0  0  0  0
  8  9  1  0  0  0  0
  8 28  1  0  0  0  0
  9 10  2  0  0  0  0
  9 11  1  0  0  0  0
 11 12  1  0  0  0  0
 11 29  1  0  0  0  0
 11 30  1  0  0  0  0
 12 13  1  0  0  0  0
 13 17  1  0  0  0  0
 13 14  2  0  0  0  0
 14 15  1  0  0  0  0
 15 16  2  0  0  0  0
 15 31  1  0  0  0  0
 16 17  1  0  0  0  0
 16 32  1  0  0  0  0
 17 18  1  0  0  0  0
 18 33  1  0  0  0  0
 18 34  1  0  0  0  0
 18 35  1  0  0  0  0
 19 20  1  0  0  0  0
 19 36  1  0  0  0  0
 20 37  1  0  0  0  0
M  END
$$$$
