ZINC000000005386      none
 OpenBabel11202420153D

 38 40  0  0  1  0  0  0  0  0999 V2000
   33.4553   39.6348   57.1771 C   0  0  0  0  0  0  0  0  0  0  0  0
   32.9837   38.6094   58.1758 C   0  0  0  0  0  0  0  0  0  0  0  0
   32.6619   38.9958   59.4634 C   0  0  0  0  0  0  0  0  0  0  0  0
   32.2293   38.0553   60.3795 C   0  0  0  0  0  0  0  0  0  0  0  0
   32.1178   36.7285   60.0077 C   0  0  0  0  0  0  0  0  0  0  0  0
   31.6463   35.7032   61.0064 C   0  0  1  0  0  0  0  0  0  0  0  0
   30.7359   35.2298   60.6387 H   0  0  0  0  0  0  0  0  0  0  0  0
   32.6597   34.7118   61.1857 O   0  0  0  0  0  0  0  0  0  0  0  0
   31.3648   36.3778   62.3241 C   0  0  0  0  0  0  0  0  0  0  0  0
   32.3265   36.4871   63.2176 N   0  0  0  0  0  0  0  0  0  0  0  0
   32.1329   37.0701   64.3890 C   0  0  0  0  0  0  0  0  0  0  0  0
   30.8935   37.5899   64.7121 C   0  0  0  0  0  0  0  0  0  0  0  0
   29.8562   37.4935   63.7965 C   0  0  0  0  0  0  0  0  0  0  0  0
   30.1012   36.8747   62.5804 C   0  0  0  0  0  0  0  0  0  0  0  0
   29.0060   36.7463   61.5532 C   0  0  0  0  0  0  0  0  0  0  0  0
   30.9340   38.1981   66.0960 C   0  0  0  0  0  0  0  0  0  0  0  0
   32.4339   38.3841   66.4104 C   0  0  0  0  0  0  0  0  0  0  0  0
   33.0912   37.2888   65.5415 C   0  0  0  0  0  0  0  0  0  0  0  0
   32.4444   36.3414   58.7214 C   0  0  0  0  0  0  0  0  0  0  0  0
   32.8728   37.2827   57.8041 C   0  0  0  0  0  0  0  0  0  0  0  0
   34.5408   39.7193   57.2281 H   0  0  0  0  0  0  0  0  0  0  0  0
   33.1616   39.3265   56.1737 H   0  0  0  0  0  0  0  0  0  0  0  0
   33.0045   40.6002   57.4072 H   0  0  0  0  0  0  0  0  0  0  0  0
   32.7485   40.0324   59.7538 H   0  0  0  0  0  0  0  0  0  0  0  0
   31.9781   38.3570   61.3856 H   0  0  0  0  0  0  0  0  0  0  0  0
   32.8922   34.2361   60.3766 H   0  0  0  0  0  0  0  0  0  0  0  0
   28.8791   37.8921   64.0258 H   0  0  0  0  0  0  0  0  0  0  0  0
   28.4684   35.8111   61.7102 H   0  0  0  0  0  0  0  0  0  0  0  0
   28.3150   37.5836   61.6521 H   0  0  0  0  0  0  0  0  0  0  0  0
   29.4422   36.7513   60.5544 H   0  0  0  0  0  0  0  0  0  0  0  0
   30.4240   39.1614   66.1011 H   0  0  0  0  0  0  0  0  0  0  0  0
   30.4750   37.5239   66.8191 H   0  0  0  0  0  0  0  0  0  0  0  0
   32.7723   39.3760   66.1113 H   0  0  0  0  0  0  0  0  0  0  0  0
   32.6323   38.2114   67.4683 H   0  0  0  0  0  0  0  0  0  0  0  0
   33.2095   36.3691   66.1145 H   0  0  0  0  0  0  0  0  0  0  0  0
   34.0573   37.6308   65.1702 H   0  0  0  0  0  0  0  0  0  0  0  0
   32.3615   35.3041   58.4323 H   0  0  0  0  0  0  0  0  0  0  0  0
   33.1240   36.9808   56.7981 H   0  0  0  0  0  0  0  0  0  0  0  0
  1  2  1  0  0  0  0
  1 21  1  0  0  0  0
  1 22  1  0  0  0  0
  1 23  1  0  0  0  0
  2 20  2  0  0  0  0
  2  3  1  0  0  0  0
  3  4  2  0  0  0  0
  3 24  1  0  0  0  0
  4  5  1  0  0  0  0
  4 25  1  0  0  0  0
  5  6  1  0  0  0  0
  5 19  2  0  0  0  0
  6  7  1  6  0  0  0
  6  8  1  0  0  0  0
  6  9  1  0  0  0  0
  8 26  1  0  0  0  0
  9 14  2  0  0  0  0
  9 10  1  0  0  0  0
 10 11  2  0  0  0  0
 11 18  1  0  0  0  0
 11 12  1  0  0  0  0
 12 13  2  0  0  0  0
 12 16  1  0  0  0  0
 13 14  1  0  0  0  0
 13 27  1  0  0  0  0
 14 15  1  0  0  0  0
 15 28  1  0  0  0  0
 15 29  1  0  0  0  0
 15 30  1  0  0  0  0
 16 17  1  0  0  0  0
 16 31  1  0  0  0  0
 16 32  1  0  0  0  0
 17 18  1  0  0  0  0
 17 33  1  0  0  0  0
 17 34  1  0  0  0  0
 18 35  1  0  0  0  0
 18 36  1  0  0  0  0
 19 20  1  0  0  0  0
 19 37  1  0  0  0  0
 20 38  1  0  0  0  0
M  END
$$$$
