ZINC000000032637      none
 OpenBabel11202420153D

 29 31  0  0  0  0  0  0  0  0999 V2000
   32.7678   36.4149   57.7683 C   0  0  0  0  0  0  0  0  0  0  0  0
   33.3027   37.5399   56.9202 C   0  0  0  0  0  0  0  0  0  0  0  0
   33.6711   37.3027   55.5949 C   0  0  0  0  0  0  0  0  0  0  0  0
   33.5386   35.9477   55.0187 C   0  0  0  0  0  0  0  0  0  0  0  0
   34.4514   34.9948   55.0325 N   0  0  0  0  0  0  0  0  0  0  0  0
   33.8899   33.9479   54.3924 C   0  0  0  0  0  0  0  0  0  0  0  0
   34.5222   32.6278   54.1431 C   0  0  0  0  0  0  0  0  0  0  0  0
   35.4190   31.9959   54.8665 N   0  0  0  0  0  0  0  0  0  0  0  0
   35.6907   30.9432   54.3386 O   0  0  0  0  0  0  0  0  0  0  0  0
   35.1109   30.7009   53.3062 N   0  0  0  0  0  0  0  0  0  0  0  0
   34.2961   31.6895   53.0202 C   0  0  0  0  0  0  0  0  0  0  0  0
   33.4391   31.8232   51.9352 N   0  0  0  0  0  0  0  0  0  0  0  0
   32.6838   34.3087   54.0371 N   0  0  0  0  0  0  0  0  0  0  0  0
   32.4648   35.4491   54.3866 O   0  0  0  0  0  0  0  0  0  0  0  0
   34.1706   38.3488   54.8180 C   0  0  0  0  0  0  0  0  0  0  0  0
   34.2860   39.6124   55.3600 C   0  0  0  0  0  0  0  0  0  0  0  0
   33.9190   39.8409   56.6741 C   0  0  0  0  0  0  0  0  0  0  0  0
   33.4288   38.8065   57.4517 C   0  0  0  0  0  0  0  0  0  0  0  0
   33.0387   39.0600   58.8569 N   0  0  0  0  0  0  0  0  0  0  0  0
   32.6067   38.1506   59.5425 O   0  0  0  0  0  0  0  0  0  0  0  0
   33.1494   40.1779   59.3276 O   0  0  0  0  0  0  0  0  0  0  0  0
   33.5996   35.8531   58.1933 H   0  0  0  0  0  0  0  0  0  0  0  0
   32.1574   36.8250   58.5729 H   0  0  0  0  0  0  0  0  0  0  0  0
   32.1595   35.7528   57.1521 H   0  0  0  0  0  0  0  0  0  0  0  0
   32.8887   32.6170   51.8468 H   0  0  0  0  0  0  0  0  0  0  0  0
   33.3911   31.1225   51.2660 H   0  0  0  0  0  0  0  0  0  0  0  0
   34.4616   38.1707   53.7933 H   0  0  0  0  0  0  0  0  0  0  0  0
   34.6678   40.4240   54.7584 H   0  0  0  0  0  0  0  0  0  0  0  0
   34.0159   40.8307   57.0950 H   0  0  0  0  0  0  0  0  0  0  0  0
  1  2  1  0  0  0  0
  1 22  1  0  0  0  0
  1 23  1  0  0  0  0
  1 24  1  0  0  0  0
  2 18  2  0  0  0  0
  2  3  1  0  0  0  0
  3  4  1  0  0  0  0
  3 15  2  0  0  0  0
  4 14  1  0  0  0  0
  4  5  2  0  0  0  0
  5  6  1  0  0  0  0
  6  7  1  0  0  0  0
  6 13  2  0  0  0  0
  7 11  1  0  0  0  0
  7  8  2  0  0  0  0
  8  9  1  0  0  0  0
  9 10  1  0  0  0  0
 10 11  2  0  0  0  0
 11 12  1  0  0  0  0
 12 25  1  0  0  0  0
 12 26  1  0  0  0  0
 13 14  1  0  0  0  0
 15 16  1  0  0  0  0
 15 27  1  0  0  0  0
 16 17  2  0  0  0  0
 16 28  1  0  0  0  0
 17 18  1  0  0  0  0
 17 29  1  0  0  0  0
 18 19  1  0  0  0  0
 19 20  2  0  0  0  0
 19 21  2  0  0  0  0
M  END
$$$$
