ZINC000000037811      none
 OpenBabel11202420153D

 37 39  0  0  0  0  0  0  0  0999 V2000
   29.1342   35.1873   66.8203 C   0  0  0  0  0  0  0  0  0  0  0  0
   30.6084   35.3675   66.5651 C   0  0  0  0  0  0  0  0  0  0  0  0
   31.3479   35.6787   67.4748 O   0  0  0  0  0  0  0  0  0  0  0  0
   31.1499   35.1662   65.2149 C   0  0  0  0  0  0  0  0  0  0  0  0
   32.2773   35.8834   64.7958 C   0  0  0  0  0  0  0  0  0  0  0  0
   32.7787   35.6921   63.5340 C   0  0  0  0  0  0  0  0  0  0  0  0
   32.1692   34.7880   62.6707 C   0  0  0  0  0  0  0  0  0  0  0  0
   32.6688   34.6027   61.4230 O   0  0  0  0  0  0  0  0  0  0  0  0
   31.7404   34.2376   60.4000 C   0  0  0  0  0  0  0  0  0  0  0  0
   32.2278   34.7756   59.0532 C   0  0  0  0  0  0  0  0  0  0  0  0
   32.3325   36.2353   59.1194 N   0  0  0  0  0  0  0  0  0  0  0  0
   32.0418   37.0166   60.1944 C   0  0  0  0  0  0  0  0  0  0  0  0
   32.2493   38.2684   59.9067 N   0  0  0  0  0  0  0  0  0  0  0  0
   32.6794   38.3764   58.6232 C   0  0  0  0  0  0  0  0  0  0  0  0
   33.0375   39.4584   57.8148 C   0  0  0  0  0  0  0  0  0  0  0  0
   33.4408   39.2423   56.5276 C   0  0  0  0  0  0  0  0  0  0  0  0
   33.5001   37.9557   56.0110 C   0  0  0  0  0  0  0  0  0  0  0  0
   33.1510   36.8732   56.7901 C   0  0  0  0  0  0  0  0  0  0  0  0
   32.7386   37.0736   58.1005 C   0  0  0  0  0  0  0  0  0  0  0  0
   31.0459   34.0773   63.0799 C   0  0  0  0  0  0  0  0  0  0  0  0
   30.5404   34.2567   64.3418 C   0  0  0  0  0  0  0  0  0  0  0  0
   28.9367   34.1507   67.0932 H   0  0  0  0  0  0  0  0  0  0  0  0
   28.8236   35.8427   67.6339 H   0  0  0  0  0  0  0  0  0  0  0  0
   28.5759   35.4383   65.9183 H   0  0  0  0  0  0  0  0  0  0  0  0
   32.7509   36.5863   65.4653 H   0  0  0  0  0  0  0  0  0  0  0  0
   33.6480   36.2448   63.2098 H   0  0  0  0  0  0  0  0  0  0  0  0
   31.6625   33.1515   60.3507 H   0  0  0  0  0  0  0  0  0  0  0  0
   30.7626   34.6619   60.6284 H   0  0  0  0  0  0  0  0  0  0  0  0
   33.2056   34.3512   58.8248 H   0  0  0  0  0  0  0  0  0  0  0  0
   31.5197   34.4971   58.2729 H   0  0  0  0  0  0  0  0  0  0  0  0
   31.6922   36.6509   61.1486 H   0  0  0  0  0  0  0  0  0  0  0  0
   32.9951   40.4639   58.2067 H   0  0  0  0  0  0  0  0  0  0  0  0
   33.7168   40.0811   55.9060 H   0  0  0  0  0  0  0  0  0  0  0  0
   33.8214   37.8014   54.9915 H   0  0  0  0  0  0  0  0  0  0  0  0
   33.1989   35.8739   56.3831 H   0  0  0  0  0  0  0  0  0  0  0  0
   30.5736   33.3796   62.4041 H   0  0  0  0  0  0  0  0  0  0  0  0
   29.6706   33.7011   64.6601 H   0  0  0  0  0  0  0  0  0  0  0  0
  1  2  1  0  0  0  0
  1 22  1  0  0  0  0
  1 23  1  0  0  0  0
  1 24  1  0  0  0  0
  2  3  2  0  0  0  0
  2  4  1  0  0  0  0
  4 21  2  0  0  0  0
  4  5  1  0  0  0  0
  5  6  2  0  0  0  0
  5 25  1  0  0  0  0
  6  7  1  0  0  0  0
  6 26  1  0  0  0  0
  7  8  1  0  0  0  0
  7 20  2  0  0  0  0
  8  9  1  0  0  0  0
  9 10  1  0  0  0  0
  9 27  1  0  0  0  0
  9 28  1  0  0  0  0
 10 11  1  0  0  0  0
 10 29  1  0  0  0  0
 10 30  1  0  0  0  0
 11 19  1  0  0  0  0
 11 12  1  0  0  0  0
 12 13  2  0  0  0  0
 12 31  1  0  0  0  0
 13 14  1  0  0  0  0
 14 19  2  0  0  0  0
 14 15  1  0  0  0  0
 15 16  2  0  0  0  0
 15 32  1  0  0  0  0
 16 17  1  0  0  0  0
 16 33  1  0  0  0  0
 17 18  2  0  0  0  0
 17 34  1  0  0  0  0
 18 19  1  0  0  0  0
 18 35  1  0  0  0  0
 20 21  1  0  0  0  0
 20 36  1  0  0  0  0
 21 37  1  0  0  0  0
M  END
$$$$
