ZINC000000037156      none
 OpenBabel11202420153D

 21 22  0  0  0  0  0  0  0  0999 V2000
   31.9394   35.3407   58.3824 O   0  0  0  0  0  0  0  0  0  0  0  0
   32.7039   35.6972   57.5084 C   0  0  0  0  0  0  0  0  0  0  0  0
   33.3317   34.6966   56.6236 C   0  0  0  0  0  0  0  0  0  0  0  0
   34.1420   33.6939   57.1624 C   0  0  0  0  0  0  0  0  0  0  0  0
   34.7262   32.7621   56.3310 C   0  0  0  0  0  0  0  0  0  0  0  0
   34.5117   32.8180   54.9637 C   0  0  0  0  0  0  0  0  0  0  0  0
   35.2506   31.6405   53.9237 Cl  0  0  0  0  0  0  0  0  0  0  0  0
   33.7089   33.8101   54.4223 C   0  0  0  0  0  0  0  0  0  0  0  0
   33.4464   33.8725   52.7074 Cl  0  0  0  0  0  0  0  0  0  0  0  0
   33.1186   34.7485   55.2440 C   0  0  0  0  0  0  0  0  0  0  0  0
   32.9791   37.0066   57.3467 N   0  0  0  0  0  0  0  0  0  0  0  0
   32.4775   38.0306   58.0920 C   0  0  0  0  0  0  0  0  0  0  0  0
   32.9988   39.1796   57.6096 C   0  0  0  0  0  0  0  0  0  0  0  0
   33.8438   38.8556   56.5391 C   0  0  0  0  0  0  0  0  0  0  0  0
   33.8368   37.5578   56.3858 N   0  0  0  0  0  0  0  0  0  0  0  0
   34.3101   33.6485   58.2282 H   0  0  0  0  0  0  0  0  0  0  0  0
   35.3528   31.9870   56.7468 H   0  0  0  0  0  0  0  0  0  0  0  0
   32.4969   35.5238   54.8213 H   0  0  0  0  0  0  0  0  0  0  0  0
   31.7880   37.9401   58.9183 H   0  0  0  0  0  0  0  0  0  0  0  0
   32.7996   40.1733   57.9832 H   0  0  0  0  0  0  0  0  0  0  0  0
   34.4086   39.5588   55.9450 H   0  0  0  0  0  0  0  0  0  0  0  0
  1  2  2  0  0  0  0
  2  3  1  0  0  0  0
  2 11  1  0  0  0  0
  3 10  2  0  0  0  0
  3  4  1  0  0  0  0
  4  5  2  0  0  0  0
  4 16  1  0  0  0  0
  5  6  1  0  0  0  0
  5 17  1  0  0  0  0
  6  7  1  0  0  0  0
  6  8  2  0  0  0  0
  8  9  1  0  0  0  0
  8 10  1  0  0  0  0
 10 18  1  0  0  0  0
 11 15  1  0  0  0  0
 11 12  1  0  0  0  0
 12 13  2  0  0  0  0
 12 19  1  0  0  0  0
 13 14  1  0  0  0  0
 13 20  1  0  0  0  0
 14 15  2  0  0  0  0
 14 21  1  0  0  0  0
M  END
$$$$
