ZINC000000043002      none
 OpenBabel11202420153D

 37 39  0  0  0  0  0  0  0  0999 V2000
   31.9158   36.7859   66.1438 C   0  0  0  0  0  0  0  0  0  0  0  0
   31.2037   37.0478   64.8152 C   0  0  0  0  0  0  0  0  0  0  0  0
   31.0364   38.5326   64.6191 C   0  0  0  0  0  0  0  0  0  0  0  0
   30.9188   39.2591   65.5773 O   0  0  0  0  0  0  0  0  0  0  0  0
   31.0182   39.0482   63.3795 O   0  0  0  0  0  0  0  0  0  0  0  0
   30.5350   38.2541   62.3878 C   0  0  0  0  0  0  0  0  0  0  0  0
   29.2311   37.7824   62.4491 C   0  0  0  0  0  0  0  0  0  0  0  0
   28.7386   36.9753   61.4415 C   0  0  0  0  0  0  0  0  0  0  0  0
   29.5426   36.6347   60.3705 C   0  0  0  0  0  0  0  0  0  0  0  0
   30.8478   37.1036   60.3043 C   0  0  0  0  0  0  0  0  0  0  0  0
   31.6631   36.7581   59.2180 N   0  0  0  0  0  0  0  0  0  0  0  0
   31.9888   35.4968   58.8817 C   0  0  0  0  0  0  0  0  0  0  0  0
   31.6284   34.4929   59.4621 O   0  0  0  0  0  0  0  0  0  0  0  0
   32.8585   35.5376   57.6872 C   0  0  0  0  0  0  0  0  0  0  0  0
   33.4851   34.5744   56.9130 C   0  0  0  0  0  0  0  0  0  0  0  0
   34.2542   34.9598   55.8260 C   0  0  0  0  0  0  0  0  0  0  0  0
   34.4000   36.2976   55.5099 C   0  0  0  0  0  0  0  0  0  0  0  0
   33.7790   37.2723   56.2753 C   0  0  0  0  0  0  0  0  0  0  0  0
   33.9396   38.7026   55.9301 N   0  0  0  0  0  0  0  0  0  0  0  0
   34.6185   39.0253   54.9717 O   0  0  0  0  0  0  0  0  0  0  0  0
   33.3928   39.5570   56.6043 O   0  0  0  0  0  0  0  0  0  0  0  0
   33.0071   36.9019   57.3648 C   0  0  0  0  0  0  0  0  0  0  0  0
   32.2181   37.6435   58.3709 C   0  0  0  0  0  0  0  0  0  0  0  0
   32.0941   38.8504   58.4255 O   0  0  0  0  0  0  0  0  0  0  0  0
   31.3422   37.9195   61.3120 C   0  0  0  0  0  0  0  0  0  0  0  0
   32.8956   37.2634   66.1311 H   0  0  0  0  0  0  0  0  0  0  0  0
   31.3224   37.1957   66.9610 H   0  0  0  0  0  0  0  0  0  0  0  0
   32.0368   35.7120   66.2856 H   0  0  0  0  0  0  0  0  0  0  0  0
   31.7972   36.6380   63.9978 H   0  0  0  0  0  0  0  0  0  0  0  0
   30.2239   36.5703   64.8279 H   0  0  0  0  0  0  0  0  0  0  0  0
   28.6006   38.0466   63.2852 H   0  0  0  0  0  0  0  0  0  0  0  0
   27.7237   36.6096   61.4913 H   0  0  0  0  0  0  0  0  0  0  0  0
   29.1555   36.0033   59.5846 H   0  0  0  0  0  0  0  0  0  0  0  0
   33.3750   33.5278   57.1555 H   0  0  0  0  0  0  0  0  0  0  0  0
   34.7433   34.2097   55.2222 H   0  0  0  0  0  0  0  0  0  0  0  0
   35.0022   36.5853   54.6608 H   0  0  0  0  0  0  0  0  0  0  0  0
   32.3556   38.2894   61.2604 H   0  0  0  0  0  0  0  0  0  0  0  0
  1  2  1  0  0  0  0
  1 26  1  0  0  0  0
  1 27  1  0  0  0  0
  1 28  1  0  0  0  0
  2  3  1  0  0  0  0
  2 29  1  0  0  0  0
  2 30  1  0  0  0  0
  3  4  2  0  0  0  0
  3  5  1  0  0  0  0
  5  6  1  0  0  0  0
  6 25  2  0  0  0  0
  6  7  1  0  0  0  0
  7  8  2  0  0  0  0
  7 31  1  0  0  0  0
  8  9  1  0  0  0  0
  8 32  1  0  0  0  0
  9 10  2  0  0  0  0
  9 33  1  0  0  0  0
 10 11  1  0  0  0  0
 10 25  1  0  0  0  0
 11 23  1  0  0  0  0
 11 12  1  0  0  0  0
 12 13  2  0  0  0  0
 12 14  1  0  0  0  0
 14 22  2  0  0  0  0
 14 15  1  0  0  0  0
 15 16  2  0  0  0  0
 15 34  1  0  0  0  0
 16 17  1  0  0  0  0
 16 35  1  0  0  0  0
 17 18  2  0  0  0  0
 17 36  1  0  0  0  0
 18 19  1  0  0  0  0
 18 22  1  0  0  0  0
 19 20  2  0  0  0  0
 19 21  2  0  0  0  0
 22 23  1  0  0  0  0
 23 24  2  0  0  0  0
 25 37  1  0  0  0  0
M  END
$$$$
