ZINC000000003158      none
 OpenBabel11202420153D

 37 38  0  0  0  0  0  0  0  0999 V2000
   32.1771   32.9786   55.7094 C   0  0  0  0  0  0  0  0  0  0  0  0
   32.4860   34.1592   56.5199 N   0  0  0  0  0  0  0  0  0  0  0  0
   33.4183   35.1148   56.0474 O   0  0  0  0  0  0  0  0  0  0  0  0
   33.0965   36.4622   56.4020 C   0  0  0  0  0  0  0  0  0  0  0  0
   32.7058   36.5123   57.8580 C   0  0  0  0  0  0  0  0  0  0  0  0
   32.9563   37.4955   58.5216 O   0  0  0  0  0  0  0  0  0  0  0  0
   32.0768   35.4606   58.4182 N   0  0  0  0  0  0  0  0  0  0  0  0
   31.6238   35.5419   59.7422 C   0  0  0  0  0  0  0  0  0  0  0  0
   32.0967   34.6496   60.6950 C   0  0  0  0  0  0  0  0  0  0  0  0
   31.6524   34.7355   62.0001 C   0  0  0  0  0  0  0  0  0  0  0  0
   30.7294   35.7019   62.3555 C   0  0  0  0  0  0  0  0  0  0  0  0
   30.2429   35.7895   63.7791 C   0  0  0  0  0  0  0  0  0  0  0  0
   30.9211   34.7042   64.6176 C   0  0  0  0  0  0  0  0  0  0  0  0
   30.5868   37.1659   64.3519 C   0  0  0  0  0  0  0  0  0  0  0  0
   28.7267   35.5871   63.8132 C   0  0  0  0  0  0  0  0  0  0  0  0
   30.2524   36.5883   61.4074 C   0  0  0  0  0  0  0  0  0  0  0  0
   30.6972   36.5110   60.1021 C   0  0  0  0  0  0  0  0  0  0  0  0
   31.8823   34.3318   57.7106 C   0  0  0  0  0  0  0  0  0  0  0  0
   30.8600   33.1063   58.3302 S   0  0  0  0  0  0  0  0  0  0  0  0
   31.3396   33.2009   55.0481 H   0  0  0  0  0  0  0  0  0  0  0  0
   33.0490   32.7087   55.1135 H   0  0  0  0  0  0  0  0  0  0  0  0
   31.9127   32.1477   56.3637 H   0  0  0  0  0  0  0  0  0  0  0  0
   32.2651   36.8112   55.7895 H   0  0  0  0  0  0  0  0  0  0  0  0
   33.9649   37.0998   56.2358 H   0  0  0  0  0  0  0  0  0  0  0  0
   32.8142   33.8919   60.4170 H   0  0  0  0  0  0  0  0  0  0  0  0
   32.0230   34.0443   62.7426 H   0  0  0  0  0  0  0  0  0  0  0  0
   32.0012   34.8483   64.5932 H   0  0  0  0  0  0  0  0  0  0  0  0
   30.5691   34.7675   65.6473 H   0  0  0  0  0  0  0  0  0  0  0  0
   30.6762   33.7236   64.2094 H   0  0  0  0  0  0  0  0  0  0  0  0
   30.1035   37.9390   63.7546 H   0  0  0  0  0  0  0  0  0  0  0  0
   30.2347   37.2292   65.3816 H   0  0  0  0  0  0  0  0  0  0  0  0
   31.6670   37.3100   64.3276 H   0  0  0  0  0  0  0  0  0  0  0  0
   28.4817   34.6066   63.4050 H   0  0  0  0  0  0  0  0  0  0  0  0
   28.3747   35.6505   64.8428 H   0  0  0  0  0  0  0  0  0  0  0  0
   28.2435   36.3604   63.2158 H   0  0  0  0  0  0  0  0  0  0  0  0
   29.5316   37.3420   61.6880 H   0  0  0  0  0  0  0  0  0  0  0  0
   30.3248   37.2041   59.3622 H   0  0  0  0  0  0  0  0  0  0  0  0
  1  2  1  0  0  0  0
  1 20  1  0  0  0  0
  1 21  1  0  0  0  0
  1 22  1  0  0  0  0
  2 18  1  0  0  0  0
  2  3  1  0  0  0  0
  3  4  1  0  0  0  0
  4  5  1  0  0  0  0
  4 23  1  0  0  0  0
  4 24  1  0  0  0  0
  5  6  2  0  0  0  0
  5  7  1  0  0  0  0
  7  8  1  0  0  0  0
  7 18  1  0  0  0  0
  8 17  2  0  0  0  0
  8  9  1  0  0  0  0
  9 10  2  0  0  0  0
  9 25  1  0  0  0  0
 10 11  1  0  0  0  0
 10 26  1  0  0  0  0
 11 12  1  0  0  0  0
 11 16  2  0  0  0  0
 12 13  1  0  0  0  0
 12 14  1  0  0  0  0
 12 15  1  0  0  0  0
 13 27  1  0  0  0  0
 13 28  1  0  0  0  0
 13 29  1  0  0  0  0
 14 30  1  0  0  0  0
 14 31  1  0  0  0  0
 14 32  1  0  0  0  0
 15 33  1  0  0  0  0
 15 34  1  0  0  0  0
 15 35  1  0  0  0  0
 16 17  1  0  0  0  0
 16 36  1  0  0  0  0
 17 37  1  0  0  0  0
 18 19  2  0  0  0  0
M  END
$$$$
