ZINC000000008474      none
 OpenBabel11202420153D

 22 23  0  0  0  0  0  0  0  0999 V2000
   34.4440   36.0033   54.6125 C   0  0  0  0  0  0  0  0  0  0  0  0
   33.8234   36.5721   55.8624 C   0  0  0  0  0  0  0  0  0  0  0  0
   33.8291   37.8227   56.1855 N   0  0  0  0  0  0  0  0  0  0  0  0
   33.2429   38.1563   57.3128 C   0  0  0  0  0  0  0  0  0  0  0  0
   33.1759   39.5770   57.8110 C   0  0  0  0  0  0  0  0  0  0  0  0
   32.7059   37.1167   57.9873 C   0  0  0  0  0  0  0  0  0  0  0  0
   31.9878   37.1930   59.2777 C   0  0  0  0  0  0  0  0  0  0  0  0
   31.9234   36.1874   60.2780 C   0  0  0  0  0  0  0  0  0  0  0  0
   31.1525   36.7466   61.2542 C   0  0  0  0  0  0  0  0  0  0  0  0
   30.7895   36.1661   62.4561 N   0  0  0  0  0  0  0  0  0  0  0  0
   30.8100   37.9691   60.8167 O   0  0  0  0  0  0  0  0  0  0  0  0
   31.2767   38.2027   59.7264 N   0  0  0  0  0  0  0  0  0  0  0  0
   33.0123   35.6536   57.0546 S   0  0  0  0  0  0  0  0  0  0  0  0
   33.7063   35.9993   53.8101 H   0  0  0  0  0  0  0  0  0  0  0  0
   35.2966   36.6156   54.3191 H   0  0  0  0  0  0  0  0  0  0  0  0
   34.7779   34.9835   54.8041 H   0  0  0  0  0  0  0  0  0  0  0  0
   32.2727   40.0535   57.4298 H   0  0  0  0  0  0  0  0  0  0  0  0
   33.1557   39.5793   58.9008 H   0  0  0  0  0  0  0  0  0  0  0  0
   34.0509   40.1258   57.4627 H   0  0  0  0  0  0  0  0  0  0  0  0
   32.3803   35.2088   60.2691 H   0  0  0  0  0  0  0  0  0  0  0  0
   30.2306   36.6539   63.0812 H   0  0  0  0  0  0  0  0  0  0  0  0
   31.0938   35.2712   62.6740 H   0  0  0  0  0  0  0  0  0  0  0  0
  1  2  1  0  0  0  0
  1 14  1  0  0  0  0
  1 15  1  0  0  0  0
  1 16  1  0  0  0  0
  2 13  1  0  0  0  0
  2  3  2  0  0  0  0
  3  4  1  0  0  0  0
  4  5  1  0  0  0  0
  4  6  2  0  0  0  0
  5 17  1  0  0  0  0
  5 18  1  0  0  0  0
  5 19  1  0  0  0  0
  6  7  1  0  0  0  0
  6 13  1  0  0  0  0
  7 12  2  0  0  0  0
  7  8  1  0  0  0  0
  8  9  2  0  0  0  0
  8 20  1  0  0  0  0
  9 10  1  0  0  0  0
  9 11  1  0  0  0  0
 10 21  1  0  0  0  0
 10 22  1  0  0  0  0
 11 12  1  0  0  0  0
M  END
$$$$
