ZINC000000035126      none
 OpenBabel11202420153D

 28 28  0  0  0  0  0  0  0  0999 V2000
   31.8957   36.8805   65.2343 C   0  0  0  0  0  0  0  0  0  0  0  0
   32.8717   36.7990   64.0591 C   0  0  0  0  0  0  0  0  0  0  0  0
   32.1756   36.3035   62.8851 O   0  0  0  0  0  0  0  0  0  0  0  0
   31.6054   37.2171   62.0837 C   0  0  0  0  0  0  0  0  0  0  0  0
   31.6854   38.3919   62.3543 O   0  0  0  0  0  0  0  0  0  0  0  0
   30.8657   36.7774   60.8467 C   0  0  0  0  0  0  0  0  0  0  0  0
   31.9969   35.8820   59.7535 S   0  0  0  0  0  0  0  0  0  0  0  0
   32.6112   37.2205   58.7862 C   0  0  0  0  0  0  0  0  0  0  0  0
   32.7026   38.4417   59.3047 N   0  0  0  0  0  0  0  0  0  0  0  0
   33.1644   39.4493   58.5800 C   0  0  0  0  0  0  0  0  0  0  0  0
   33.2472   40.7083   59.1502 N   0  0  0  0  0  0  0  0  0  0  0  0
   33.5546   39.2820   57.3251 N   0  0  0  0  0  0  0  0  0  0  0  0
   33.4858   38.0935   56.7425 C   0  0  0  0  0  0  0  0  0  0  0  0
   33.9274   37.9197   55.3121 C   0  0  0  0  0  0  0  0  0  0  0  0
   33.0101   37.0146   57.4624 C   0  0  0  0  0  0  0  0  0  0  0  0
   32.9108   35.4391   56.7398 Cl  0  0  0  0  0  0  0  0  0  0  0  0
   31.4935   35.8890   65.4419 H   0  0  0  0  0  0  0  0  0  0  0  0
   32.4182   37.2526   66.1156 H   0  0  0  0  0  0  0  0  0  0  0  0
   31.0798   37.5581   64.9827 H   0  0  0  0  0  0  0  0  0  0  0  0
   33.6877   36.1214   64.3106 H   0  0  0  0  0  0  0  0  0  0  0  0
   33.2739   37.7907   63.8512 H   0  0  0  0  0  0  0  0  0  0  0  0
   30.4746   37.6521   60.3270 H   0  0  0  0  0  0  0  0  0  0  0  0
   30.0405   36.1239   61.1296 H   0  0  0  0  0  0  0  0  0  0  0  0
   32.9689   40.8436   60.0695 H   0  0  0  0  0  0  0  0  0  0  0  0
   33.5836   41.4550   58.6304 H   0  0  0  0  0  0  0  0  0  0  0  0
   33.0795   38.0851   54.6474 H   0  0  0  0  0  0  0  0  0  0  0  0
   34.7133   38.6398   55.0845 H   0  0  0  0  0  0  0  0  0  0  0  0
   34.3087   36.9085   55.1699 H   0  0  0  0  0  0  0  0  0  0  0  0
  1  2  1  0  0  0  0
  1 17  1  0  0  0  0
  1 18  1  0  0  0  0
  1 19  1  0  0  0  0
  2  3  1  0  0  0  0
  2 20  1  0  0  0  0
  2 21  1  0  0  0  0
  3  4  1  0  0  0  0
  4  5  2  0  0  0  0
  4  6  1  0  0  0  0
  6  7  1  0  0  0  0
  6 22  1  0  0  0  0
  6 23  1  0  0  0  0
  7  8  1  0  0  0  0
  8 15  2  0  0  0  0
  8  9  1  0  0  0  0
  9 10  2  0  0  0  0
 10 11  1  0  0  0  0
 10 12  1  0  0  0  0
 11 24  1  0  0  0  0
 11 25  1  0  0  0  0
 12 13  2  0  0  0  0
 13 14  1  0  0  0  0
 13 15  1  0  0  0  0
 14 26  1  0  0  0  0
 14 27  1  0  0  0  0
 14 28  1  0  0  0  0
 15 16  1  0  0  0  0
M  END
$$$$
