ZINC000000033984      none
 OpenBabel11202420153D

 32 33  0  0  0  0  0  0  0  0999 V2000
   33.5064   38.5692   66.5112 C   0  0  0  0  0  0  0  0  0  0  0  0
   33.7752   37.1791   66.3188 O   0  0  0  0  0  0  0  0  0  0  0  0
   32.8611   36.4667   65.6126 C   0  0  0  0  0  0  0  0  0  0  0  0
   32.9755   36.3605   64.2376 C   0  0  0  0  0  0  0  0  0  0  0  0
   32.0422   35.6268   63.5175 C   0  0  0  0  0  0  0  0  0  0  0  0
   32.1636   35.5173   62.1315 N   0  0  0  0  0  0  0  0  0  0  0  0
   31.0623   35.3737   61.3680 C   0  0  0  0  0  0  0  0  0  0  0  0
   29.9638   35.3395   61.8863 O   0  0  0  0  0  0  0  0  0  0  0  0
   31.1794   35.2680   60.0304 O   0  0  0  0  0  0  0  0  0  0  0  0
   31.7604   36.3091   59.3776 C   0  0  0  0  0  0  0  0  0  0  0  0
   31.6445   37.5965   59.8811 C   0  0  0  0  0  0  0  0  0  0  0  0
   32.2396   38.6524   59.2180 C   0  0  0  0  0  0  0  0  0  0  0  0
   32.9421   38.4281   58.0485 C   0  0  0  0  0  0  0  0  0  0  0  0
   33.0546   37.1465   57.5418 C   0  0  0  0  0  0  0  0  0  0  0  0
   32.4654   36.0867   58.2037 C   0  0  0  0  0  0  0  0  0  0  0  0
   30.9827   35.0043   64.1724 C   0  0  0  0  0  0  0  0  0  0  0  0
   30.8559   35.1080   65.5384 C   0  0  0  0  0  0  0  0  0  0  0  0
   31.7936   35.8403   66.2736 C   0  0  0  0  0  0  0  0  0  0  0  0
   31.6645   35.9507   67.6953 C   0  0  0  0  0  0  0  0  0  0  0  0
   31.5621   36.0383   68.8234 N   0  0  0  0  0  0  0  0  0  0  0  0
   34.3133   39.0188   67.0899 H   0  0  0  0  0  0  0  0  0  0  0  0
   32.5652   38.6864   67.0485 H   0  0  0  0  0  0  0  0  0  0  0  0
   33.4353   39.0632   65.5421 H   0  0  0  0  0  0  0  0  0  0  0  0
   33.7931   36.8454   63.7249 H   0  0  0  0  0  0  0  0  0  0  0  0
   33.0405   35.5445   61.7179 H   0  0  0  0  0  0  0  0  0  0  0  0
   31.0925   37.7728   60.7925 H   0  0  0  0  0  0  0  0  0  0  0  0
   32.1528   39.6544   59.6116 H   0  0  0  0  0  0  0  0  0  0  0  0
   33.4034   39.2554   57.5296 H   0  0  0  0  0  0  0  0  0  0  0  0
   33.6032   36.9740   56.6277 H   0  0  0  0  0  0  0  0  0  0  0  0
   32.5533   35.0858   57.8074 H   0  0  0  0  0  0  0  0  0  0  0  0
   30.2578   34.4384   63.6060 H   0  0  0  0  0  0  0  0  0  0  0  0
   30.0325   34.6243   66.0428 H   0  0  0  0  0  0  0  0  0  0  0  0
  1  2  1  0  0  0  0
  1 21  1  0  0  0  0
  1 22  1  0  0  0  0
  1 23  1  0  0  0  0
  2  3  1  0  0  0  0
  3 18  2  0  0  0  0
  3  4  1  0  0  0  0
  4  5  2  0  0  0  0
  4 24  1  0  0  0  0
  5  6  1  0  0  0  0
  5 16  1  0  0  0  0
  6  7  1  0  0  0  0
  6 25  1  0  0  0  0
  7  8  2  0  0  0  0
  7  9  1  0  0  0  0
  9 10  1  0  0  0  0
 10 15  2  0  0  0  0
 10 11  1  0  0  0  0
 11 12  2  0  0  0  0
 11 26  1  0  0  0  0
 12 13  1  0  0  0  0
 12 27  1  0  0  0  0
 13 14  2  0  0  0  0
 13 28  1  0  0  0  0
 14 15  1  0  0  0  0
 14 29  1  0  0  0  0
 15 30  1  0  0  0  0
 16 17  2  0  0  0  0
 16 31  1  0  0  0  0
 17 18  1  0  0  0  0
 17 32  1  0  0  0  0
 18 19  1  0  0  0  0
 19 20  3  0  0  0  0
M  END
$$$$
