ZINC000000036669      none
 OpenBabel11202420153D

 40 42  0  0  0  0  0  0  0  0999 V2000
   34.1357   33.8626   55.7768 C   0  0  0  0  0  0  0  0  0  0  0  0
   32.4705   34.1392   56.4409 S   0  0  0  0  0  0  0  0  0  0  0  0
   32.6550   35.6272   57.3666 C   0  0  0  0  0  0  0  0  0  0  0  0
   32.4365   35.7825   58.6862 C   0  0  0  0  0  0  0  0  0  0  0  0
   31.9865   34.6928   59.6249 C   0  0  0  0  0  0  0  0  0  0  0  0
   31.8530   35.2529   61.0176 C   0  0  0  0  0  0  0  0  0  0  0  0
   31.5577   36.4183   61.1768 O   0  0  0  0  0  0  0  0  0  0  0  0
   32.0619   34.4586   62.0863 N   0  0  0  0  0  0  0  0  0  0  0  0
   31.9378   34.9786   63.3793 C   0  0  0  0  0  0  0  0  0  0  0  0
   31.0019   34.4465   64.2564 C   0  0  0  0  0  0  0  0  0  0  0  0
   30.8859   34.9582   65.5340 C   0  0  0  0  0  0  0  0  0  0  0  0
   31.6924   36.0070   65.9362 C   0  0  0  0  0  0  0  0  0  0  0  0
   31.5585   36.5674   67.3287 C   0  0  0  0  0  0  0  0  0  0  0  0
   32.6218   36.5425   65.0634 C   0  0  0  0  0  0  0  0  0  0  0  0
   32.7465   36.0316   63.7864 C   0  0  0  0  0  0  0  0  0  0  0  0
   32.6856   37.0866   59.0481 N   0  0  0  0  0  0  0  0  0  0  0  0
   32.5984   37.4423   59.9463 H   0  0  0  0  0  0  0  0  0  0  0  0
   33.0776   37.8110   57.9451 C   0  0  0  0  0  0  0  0  0  0  0  0
   33.4408   39.1409   57.7547 C   0  0  0  0  0  0  0  0  0  0  0  0
   33.7933   39.5807   56.4981 C   0  0  0  0  0  0  0  0  0  0  0  0
   33.7902   38.7100   55.4165 C   0  0  0  0  0  0  0  0  0  0  0  0
   33.4375   37.4004   55.5810 C   0  0  0  0  0  0  0  0  0  0  0  0
   33.0716   36.9344   56.8450 C   0  0  0  0  0  0  0  0  0  0  0  0
   34.4243   34.7100   55.1548 H   0  0  0  0  0  0  0  0  0  0  0  0
   34.8426   33.7589   56.6001 H   0  0  0  0  0  0  0  0  0  0  0  0
   34.1411   32.9529   55.1766 H   0  0  0  0  0  0  0  0  0  0  0  0
   31.0228   34.3045   59.2954 H   0  0  0  0  0  0  0  0  0  0  0  0
   32.7215   33.8878   59.6259 H   0  0  0  0  0  0  0  0  0  0  0  0
   32.2981   33.5265   61.9589 H   0  0  0  0  0  0  0  0  0  0  0  0
   30.3682   33.6307   63.9412 H   0  0  0  0  0  0  0  0  0  0  0  0
   30.1610   34.5422   66.2180 H   0  0  0  0  0  0  0  0  0  0  0  0
   30.8237   37.3723   67.3273 H   0  0  0  0  0  0  0  0  0  0  0  0
   31.2329   35.7793   68.0078 H   0  0  0  0  0  0  0  0  0  0  0  0
   32.5221   36.9558   67.6583 H   0  0  0  0  0  0  0  0  0  0  0  0
   33.2503   37.3615   65.3806 H   0  0  0  0  0  0  0  0  0  0  0  0
   33.4721   36.4508   63.1050 H   0  0  0  0  0  0  0  0  0  0  0  0
   33.4466   39.8258   58.5898 H   0  0  0  0  0  0  0  0  0  0  0  0
   34.0752   40.6131   56.3525 H   0  0  0  0  0  0  0  0  0  0  0  0
   34.0693   39.0707   54.4376 H   0  0  0  0  0  0  0  0  0  0  0  0
   33.4375   36.7290   54.7352 H   0  0  0  0  0  0  0  0  0  0  0  0
  1  2  1  0  0  0  0
  1 24  1  0  0  0  0
  1 25  1  0  0  0  0
  1 26  1  0  0  0  0
  2  3  1  0  0  0  0
  3 23  1  0  0  0  0
  3  4  2  0  0  0  0
  4  5  1  0  0  0  0
  4 16  1  0  0  0  0
  5  6  1  0  0  0  0
  5 27  1  0  0  0  0
  5 28  1  0  0  0  0
  6  7  2  0  0  0  0
  6  8  1  0  0  0  0
  8  9  1  0  0  0  0
  8 29  1  0  0  0  0
  9 15  2  0  0  0  0
  9 10  1  0  0  0  0
 10 11  2  0  0  0  0
 10 30  1  0  0  0  0
 11 12  1  0  0  0  0
 11 31  1  0  0  0  0
 12 13  1  0  0  0  0
 12 14  2  0  0  0  0
 13 32  1  0  0  0  0
 13 33  1  0  0  0  0
 13 34  1  0  0  0  0
 14 15  1  0  0  0  0
 14 35  1  0  0  0  0
 15 36  1  0  0  0  0
 16 17  1  0  0  0  0
 16 18  1  0  0  0  0
 18 23  2  0  0  0  0
 18 19  1  0  0  0  0
 19 20  2  0  0  0  0
 19 37  1  0  0  0  0
 20 21  1  0  0  0  0
 20 38  1  0  0  0  0
 21 22  2  0  0  0  0
 21 39  1  0  0  0  0
 22 23  1  0  0  0  0
 22 40  1  0  0  0  0
M  END
$$$$
