ZINC000000005614      none
 OpenBabel11202420153D

 23 23  0  0  0  0  0  0  0  0999 V2000
   34.0639   33.0113   55.1774 C   0  0  0  0  0  0  0  0  0  0  0  0
   32.9694   33.9994   54.8664 C   0  0  0  0  0  0  0  0  0  0  0  0
   32.0484   33.6777   54.1428 O   0  0  0  0  0  0  0  0  0  0  0  0
   33.0143   35.2953   55.4146 C   0  0  0  0  0  0  0  0  0  0  0  0
   33.0163   35.4625   56.7599 C   0  0  0  0  0  0  0  0  0  0  0  0
   33.0631   36.8136   57.3315 C   0  0  0  0  0  0  0  0  0  0  0  0
   33.5188   37.8885   56.5575 C   0  0  0  0  0  0  0  0  0  0  0  0
   33.5620   39.1547   57.0966 C   0  0  0  0  0  0  0  0  0  0  0  0
   33.1546   39.3700   58.4071 C   0  0  0  0  0  0  0  0  0  0  0  0
   33.1992   40.6213   58.9328 O   0  0  0  0  0  0  0  0  0  0  0  0
   32.6996   38.3051   59.1846 C   0  0  0  0  0  0  0  0  0  0  0  0
   32.3023   38.5210   60.4672 O   0  0  0  0  0  0  0  0  0  0  0  0
   32.6526   37.0322   58.6529 C   0  0  0  0  0  0  0  0  0  0  0  0
   33.7994   32.4453   56.0707 H   0  0  0  0  0  0  0  0  0  0  0  0
   34.1861   32.3279   54.3372 H   0  0  0  0  0  0  0  0  0  0  0  0
   34.9980   33.5462   55.3496 H   0  0  0  0  0  0  0  0  0  0  0  0
   33.0471   36.1563   54.7635 H   0  0  0  0  0  0  0  0  0  0  0  0
   32.9833   34.6015   57.4111 H   0  0  0  0  0  0  0  0  0  0  0  0
   33.8358   37.7241   55.5382 H   0  0  0  0  0  0  0  0  0  0  0  0
   33.9093   39.9835   56.4976 H   0  0  0  0  0  0  0  0  0  0  0  0
   32.8967   40.6737   59.8498 H   0  0  0  0  0  0  0  0  0  0  0  0
   32.0036   37.7239   60.9259 H   0  0  0  0  0  0  0  0  0  0  0  0
   32.3000   36.2069   59.2538 H   0  0  0  0  0  0  0  0  0  0  0  0
  1  2  1  0  0  0  0
  1 14  1  0  0  0  0
  1 15  1  0  0  0  0
  1 16  1  0  0  0  0
  2  3  2  0  0  0  0
  2  4  1  0  0  0  0
  4  5  2  0  0  0  0
  4 17  1  0  0  0  0
  5  6  1  0  0  0  0
  5 18  1  0  0  0  0
  6 13  2  0  0  0  0
  6  7  1  0  0  0  0
  7  8  2  0  0  0  0
  7 19  1  0  0  0  0
  8  9  1  0  0  0  0
  8 20  1  0  0  0  0
  9 10  1  0  0  0  0
  9 11  2  0  0  0  0
 10 21  1  0  0  0  0
 11 12  1  0  0  0  0
 11 13  1  0  0  0  0
 12 22  1  0  0  0  0
 13 23  1  0  0  0  0
M  END
$$$$
