ZINC000000057398      none
 OpenBabel11202420153D

 38 40  0  0  1  0  0  0  0  0999 V2000
   33.6585   35.8259   55.5084 C   0  0  0  0  0  0  0  0  0  0  0  0
   33.6752   37.1748   56.1800 C   0  0  0  0  0  0  0  0  0  0  0  0
   34.2903   38.2368   55.5973 C   0  0  0  0  0  0  0  0  0  0  0  0
   34.2917   39.4888   56.2457 C   0  0  0  0  0  0  0  0  0  0  0  0
   34.8472   40.4326   55.7125 O   0  0  0  0  0  0  0  0  0  0  0  0
   33.7014   39.6660   57.4380 O   0  0  0  0  0  0  0  0  0  0  0  0
   33.0684   38.6536   58.0685 C   0  0  0  0  0  0  0  0  0  0  0  0
   32.4589   38.8549   59.2977 C   0  0  0  0  0  0  0  0  0  0  0  0
   31.8195   37.8011   59.9296 C   0  0  0  0  0  0  0  0  0  0  0  0
   31.2233   37.9994   61.1329 O   0  0  0  0  0  0  0  0  0  0  0  0
   31.7006   37.2181   62.2301 C   0  0  1  0  0  0  0  0  0  0  0  0
   32.5035   36.5646   61.8887 H   0  0  0  0  0  0  0  0  0  0  0  0
   32.1942   38.0850   63.2533 O   0  0  0  0  0  0  0  0  0  0  0  0
   32.7220   37.4019   64.3922 C   0  0  0  0  0  0  0  0  0  0  0  0
   31.6176   36.5618   65.0388 C   0  0  2  0  0  0  0  0  0  0  0  0
   30.8198   37.2165   65.3892 H   0  0  0  0  0  0  0  0  0  0  0  0
   32.1569   35.8328   66.1433 O   0  0  0  0  0  0  0  0  0  0  0  0
   31.0592   35.5819   64.0023 C   0  0  1  0  0  0  0  0  0  0  0  0
   31.8456   34.8949   63.6893 H   0  0  0  0  0  0  0  0  0  0  0  0
   29.9794   34.8427   64.5765 O   0  0  0  0  0  0  0  0  0  0  0  0
   30.5552   36.3705   62.7897 C   0  0  2  0  0  0  0  0  0  0  0  0
   29.7354   37.0213   63.0937 H   0  0  0  0  0  0  0  0  0  0  0  0
   30.0983   35.4623   61.7857 O   0  0  0  0  0  0  0  0  0  0  0  0
   31.7828   36.5388   59.3398 C   0  0  0  0  0  0  0  0  0  0  0  0
   32.3783   36.3231   58.1311 C   0  0  0  0  0  0  0  0  0  0  0  0
   33.0285   37.3768   57.4782 C   0  0  0  0  0  0  0  0  0  0  0  0
   34.5314   35.2533   55.8214 H   0  0  0  0  0  0  0  0  0  0  0  0
   32.7522   35.2904   55.7913 H   0  0  0  0  0  0  0  0  0  0  0  0
   33.6796   35.9583   54.4267 H   0  0  0  0  0  0  0  0  0  0  0  0
   34.7772   38.1222   54.6401 H   0  0  0  0  0  0  0  0  0  0  0  0
   32.4824   39.8303   59.7608 H   0  0  0  0  0  0  0  0  0  0  0  0
   33.5382   36.7506   64.0794 H   0  0  0  0  0  0  0  0  0  0  0  0
   33.0940   38.1303   65.1127 H   0  0  0  0  0  0  0  0  0  0  0  0
   31.5110   35.2776   66.6011 H   0  0  0  0  0  0  0  0  0  0  0  0
   29.5773   34.2018   63.9742 H   0  0  0  0  0  0  0  0  0  0  0  0
   30.7776   34.8505   61.4703 H   0  0  0  0  0  0  0  0  0  0  0  0
   31.2806   35.7259   59.8432 H   0  0  0  0  0  0  0  0  0  0  0  0
   32.3472   35.3427   57.6792 H   0  0  0  0  0  0  0  0  0  0  0  0
  1  2  1  0  0  0  0
  1 27  1  0  0  0  0
  1 28  1  0  0  0  0
  1 29  1  0  0  0  0
  2 26  1  0  0  0  0
  2  3  2  0  0  0  0
  3  4  1  0  0  0  0
  3 30  1  0  0  0  0
  4  5  2  0  0  0  0
  4  6  1  0  0  0  0
  6  7  1  0  0  0  0
  7 26  2  0  0  0  0
  7  8  1  0  0  0  0
  8  9  2  0  0  0  0
  8 31  1  0  0  0  0
  9 10  1  0  0  0  0
  9 24  1  0  0  0  0
 10 11  1  0  0  0  0
 11 12  1  6  0  0  0
 11 21  1  0  0  0  0
 11 13  1  0  0  0  0
 13 14  1  0  0  0  0
 14 15  1  0  0  0  0
 14 32  1  0  0  0  0
 14 33  1  0  0  0  0
 15 16  1  1  0  0  0
 15 17  1  0  0  0  0
 15 18  1  0  0  0  0
 17 34  1  0  0  0  0
 18 19  1  6  0  0  0
 18 20  1  0  0  0  0
 18 21  1  0  0  0  0
 20 35  1  0  0  0  0
 21 22  1  1  0  0  0
 21 23  1  0  0  0  0
 23 36  1  0  0  0  0
 24 25  2  0  0  0  0
 24 37  1  0  0  0  0
 25 26  1  0  0  0  0
 25 38  1  0  0  0  0
M  END
$$$$
