ZINC000000029214      none
 OpenBabel11202420163D

 30 30  0  0  0  0  0  0  0  0999 V2000
   30.8999   39.6175   65.0433 C   0  0  0  0  0  0  0  0  0  0  0  0
   31.5284   38.5203   64.7009 C   0  0  0  0  0  0  0  0  0  0  0  0
   30.8096   37.4542   63.9149 C   0  0  0  0  0  0  0  0  0  0  0  0
   31.4975   37.2407   62.6392 N   0  0  0  0  0  0  0  0  0  0  0  0
   32.5680   36.2454   62.5417 C   0  0  0  0  0  0  0  0  0  0  0  0
   32.0229   34.8852   62.8937 C   0  0  0  0  0  0  0  0  0  0  0  0
   30.7674   34.6002   62.6524 C   0  0  0  0  0  0  0  0  0  0  0  0
   31.1452   37.9599   61.5550 C   0  0  0  0  0  0  0  0  0  0  0  0
   30.2569   38.7856   61.6359 O   0  0  0  0  0  0  0  0  0  0  0  0
   31.8392   37.7445   60.2675 C   0  0  0  0  0  0  0  0  0  0  0  0
   32.5253   38.7954   59.6567 C   0  0  0  0  0  0  0  0  0  0  0  0
   33.1713   38.5875   58.4556 C   0  0  0  0  0  0  0  0  0  0  0  0
   33.1400   37.3408   57.8565 C   0  0  0  0  0  0  0  0  0  0  0  0
   32.4617   36.2948   58.4567 C   0  0  0  0  0  0  0  0  0  0  0  0
   31.8116   36.4893   59.6579 C   0  0  0  0  0  0  0  0  0  0  0  0
   29.8666   39.7580   64.7624 H   0  0  0  0  0  0  0  0  0  0  0  0
   31.4149   40.3815   65.6066 H   0  0  0  0  0  0  0  0  0  0  0  0
   32.5617   38.3798   64.9819 H   0  0  0  0  0  0  0  0  0  0  0  0
   29.7839   37.7713   63.7261 H   0  0  0  0  0  0  0  0  0  0  0  0
   30.8037   36.5248   64.4844 H   0  0  0  0  0  0  0  0  0  0  0  0
   32.9570   36.2285   61.5236 H   0  0  0  0  0  0  0  0  0  0  0  0
   33.3699   36.5054   63.2328 H   0  0  0  0  0  0  0  0  0  0  0  0
   32.6674   34.1454   63.3449 H   0  0  0  0  0  0  0  0  0  0  0  0
   30.3766   33.6255   62.9046 H   0  0  0  0  0  0  0  0  0  0  0  0
   30.1228   35.3400   62.2011 H   0  0  0  0  0  0  0  0  0  0  0  0
   32.5467   39.7701   60.1212 H   0  0  0  0  0  0  0  0  0  0  0  0
   33.7025   39.3997   57.9819 H   0  0  0  0  0  0  0  0  0  0  0  0
   33.6471   37.1834   56.9160 H   0  0  0  0  0  0  0  0  0  0  0  0
   32.4415   35.3240   57.9840 H   0  0  0  0  0  0  0  0  0  0  0  0
   31.2822   35.6721   60.1252 H   0  0  0  0  0  0  0  0  0  0  0  0
  1  2  2  0  0  0  0
  1 16  1  0  0  0  0
  1 17  1  0  0  0  0
  2  3  1  0  0  0  0
  2 18  1  0  0  0  0
  3  4  1  0  0  0  0
  3 19  1  0  0  0  0
  3 20  1  0  0  0  0
  4  5  1  0  0  0  0
  4  8  1  0  0  0  0
  5  6  1  0  0  0  0
  5 21  1  0  0  0  0
  5 22  1  0  0  0  0
  6  7  2  0  0  0  0
  6 23  1  0  0  0  0
  7 24  1  0  0  0  0
  7 25  1  0  0  0  0
  8  9  2  0  0  0  0
  8 10  1  0  0  0  0
 10 15  2  0  0  0  0
 10 11  1  0  0  0  0
 11 12  2  0  0  0  0
 11 26  1  0  0  0  0
 12 13  1  0  0  0  0
 12 27  1  0  0  0  0
 13 14  2  0  0  0  0
 13 28  1  0  0  0  0
 14 15  1  0  0  0  0
 14 29  1  0  0  0  0
 15 30  1  0  0  0  0
M  END
$$$$
