ZINC000000044919      none
 OpenBabel11202420153D

 42 44  0  0  0  0  0  0  0  0999 V2000
   33.1967   36.2240   62.6636 O   0  0  0  0  0  0  0  0  0  0  0  0
   32.2622   36.9539   62.9316 C   0  0  0  0  0  0  0  0  0  0  0  0
   31.6007   37.5914   61.9453 N   0  0  0  0  0  0  0  0  0  0  0  0
   31.9900   37.4130   60.6121 C   0  0  0  0  0  0  0  0  0  0  0  0
   32.3991   38.5036   59.8560 C   0  0  0  0  0  0  0  0  0  0  0  0
   32.7825   38.3270   58.5412 C   0  0  0  0  0  0  0  0  0  0  0  0
   32.7590   37.0605   57.9757 C   0  0  0  0  0  0  0  0  0  0  0  0
   33.1361   36.8874   56.6809 O   0  0  0  0  0  0  0  0  0  0  0  0
   33.5448   38.0532   55.9627 C   0  0  0  0  0  0  0  0  0  0  0  0
   33.9238   37.6694   54.5555 C   0  0  0  0  0  0  0  0  0  0  0  0
   34.8851   38.3944   53.8764 C   0  0  0  0  0  0  0  0  0  0  0  0
   35.2331   38.0420   52.5859 C   0  0  0  0  0  0  0  0  0  0  0  0
   34.6191   36.9656   51.9740 C   0  0  0  0  0  0  0  0  0  0  0  0
   33.6576   36.2403   52.6531 C   0  0  0  0  0  0  0  0  0  0  0  0
   33.3103   36.5921   53.9440 C   0  0  0  0  0  0  0  0  0  0  0  0
   32.3454   35.9714   58.7287 C   0  0  0  0  0  0  0  0  0  0  0  0
   31.9668   36.1455   60.0453 C   0  0  0  0  0  0  0  0  0  0  0  0
   31.8513   37.1422   64.3390 C   0  0  0  0  0  0  0  0  0  0  0  0
   32.0945   36.1404   65.2803 C   0  0  0  0  0  0  0  0  0  0  0  0
   31.7125   36.3242   66.5929 C   0  0  0  0  0  0  0  0  0  0  0  0
   31.0801   37.4942   66.9752 C   0  0  0  0  0  0  0  0  0  0  0  0
   30.8316   38.4888   66.0464 C   0  0  0  0  0  0  0  0  0  0  0  0
   30.1548   39.7371   66.4642 N   0  0  0  0  0  0  0  0  0  0  0  0
   29.8171   39.8877   67.6248 O   0  0  0  0  0  0  0  0  0  0  0  0
   29.9353   40.6137   65.6476 O   0  0  0  0  0  0  0  0  0  0  0  0
   31.2130   38.3197   64.7312 C   0  0  0  0  0  0  0  0  0  0  0  0
   30.8550   38.1738   62.1590 H   0  0  0  0  0  0  0  0  0  0  0  0
   32.4172   39.4897   60.2961 H   0  0  0  0  0  0  0  0  0  0  0  0
   33.1003   39.1751   57.9530 H   0  0  0  0  0  0  0  0  0  0  0  0
   34.4035   38.5039   56.4601 H   0  0  0  0  0  0  0  0  0  0  0  0
   32.7236   38.7694   55.9353 H   0  0  0  0  0  0  0  0  0  0  0  0
   35.3612   39.2388   54.3527 H   0  0  0  0  0  0  0  0  0  0  0  0
   35.9840   38.6086   52.0553 H   0  0  0  0  0  0  0  0  0  0  0  0
   34.8906   36.6902   50.9656 H   0  0  0  0  0  0  0  0  0  0  0  0
   33.1783   35.3985   52.1753 H   0  0  0  0  0  0  0  0  0  0  0  0
   32.5594   36.0255   54.4746 H   0  0  0  0  0  0  0  0  0  0  0  0
   32.3231   34.9863   58.2864 H   0  0  0  0  0  0  0  0  0  0  0  0
   31.6485   35.2970   60.6325 H   0  0  0  0  0  0  0  0  0  0  0  0
   32.5842   35.2250   64.9824 H   0  0  0  0  0  0  0  0  0  0  0  0
   31.9034   35.5516   67.3229 H   0  0  0  0  0  0  0  0  0  0  0  0
   30.7795   37.6316   68.0033 H   0  0  0  0  0  0  0  0  0  0  0  0
   31.0186   39.0970   64.0070 H   0  0  0  0  0  0  0  0  0  0  0  0
  1  2  2  0  0  0  0
  2  3  1  0  0  0  0
  2 18  1  0  0  0  0
  3  4  1  0  0  0  0
  3 27  1  0  0  0  0
  4 17  2  0  0  0  0
  4  5  1  0  0  0  0
  5  6  2  0  0  0  0
  5 28  1  0  0  0  0
  6  7  1  0  0  0  0
  6 29  1  0  0  0  0
  7  8  1  0  0  0  0
  7 16  2  0  0  0  0
  8  9  1  0  0  0  0
  9 10  1  0  0  0  0
  9 30  1  0  0  0  0
  9 31  1  0  0  0  0
 10 15  2  0  0  0  0
 10 11  1  0  0  0  0
 11 12  2  0  0  0  0
 11 32  1  0  0  0  0
 12 13  1  0  0  0  0
 12 33  1  0  0  0  0
 13 14  2  0  0  0  0
 13 34  1  0  0  0  0
 14 15  1  0  0  0  0
 14 35  1  0  0  0  0
 15 36  1  0  0  0  0
 16 17  1  0  0  0  0
 16 37  1  0  0  0  0
 17 38  1  0  0  0  0
 18 26  2  0  0  0  0
 18 19  1  0  0  0  0
 19 20  2  0  0  0  0
 19 39  1  0  0  0  0
 20 21  1  0  0  0  0
 20 40  1  0  0  0  0
 21 22  2  0  0  0  0
 21 41  1  0  0  0  0
 22 23  1  0  0  0  0
 22 26  1  0  0  0  0
 23 24  2  0  0  0  0
 23 25  2  0  0  0  0
 26 42  1  0  0  0  0
M  END
$$$$
