ZINC000000055214      none
 OpenBabel11202420153D

 40 43  0  0  0  0  0  0  0  0999 V2000
   34.6903   39.6222   54.7755 C   0  0  0  0  0  0  0  0  0  0  0  0
   34.3659   40.0205   56.1090 O   0  0  0  0  0  0  0  0  0  0  0  0
   33.8676   39.0637   56.9344 C   0  0  0  0  0  0  0  0  0  0  0  0
   33.6965   37.7591   56.4582 C   0  0  0  0  0  0  0  0  0  0  0  0
   33.2004   36.7818   57.2626 C   0  0  0  0  0  0  0  0  0  0  0  0
   32.8505   37.0766   58.5927 C   0  0  0  0  0  0  0  0  0  0  0  0
   32.3605   36.1272   59.3967 N   0  0  0  0  0  0  0  0  0  0  0  0
   32.0448   36.4214   60.6444 C   0  0  0  0  0  0  0  0  0  0  0  0
   31.5085   35.3675   61.5368 C   0  0  0  0  0  0  0  0  0  0  0  0
   30.2452   35.5115   62.1097 C   0  0  0  0  0  0  0  0  0  0  0  0
   29.7489   34.5240   62.9360 C   0  0  0  0  0  0  0  0  0  0  0  0
   30.5061   33.3980   63.2049 C   0  0  0  0  0  0  0  0  0  0  0  0
   31.7622   33.2520   62.6438 C   0  0  0  0  0  0  0  0  0  0  0  0
   32.2672   34.2302   61.8118 C   0  0  0  0  0  0  0  0  0  0  0  0
   32.2102   37.7408   61.1325 C   0  0  0  0  0  0  0  0  0  0  0  0
   31.8461   38.0598   62.5326 C   0  0  0  0  0  0  0  0  0  0  0  0
   30.8736   39.0226   62.8011 C   0  0  0  0  0  0  0  0  0  0  0  0
   30.5353   39.3121   64.1072 C   0  0  0  0  0  0  0  0  0  0  0  0
   31.1657   38.6570   65.1493 C   0  0  0  0  0  0  0  0  0  0  0  0
   32.1355   37.7045   64.8896 C   0  0  0  0  0  0  0  0  0  0  0  0
   32.4785   37.4026   63.5876 C   0  0  0  0  0  0  0  0  0  0  0  0
   32.6925   38.6866   60.3472 N   0  0  0  0  0  0  0  0  0  0  0  0
   33.0215   38.3975   59.0831 C   0  0  0  0  0  0  0  0  0  0  0  0
   33.5368   39.3874   58.2302 C   0  0  0  0  0  0  0  0  0  0  0  0
   33.7948   39.2459   54.2807 H   0  0  0  0  0  0  0  0  0  0  0  0
   35.0770   40.4793   54.2241 H   0  0  0  0  0  0  0  0  0  0  0  0
   35.4463   38.8375   54.8043 H   0  0  0  0  0  0  0  0  0  0  0  0
   33.9626   37.5252   55.4380 H   0  0  0  0  0  0  0  0  0  0  0  0
   33.0749   35.7795   56.8805 H   0  0  0  0  0  0  0  0  0  0  0  0
   29.6549   36.3922   61.9040 H   0  0  0  0  0  0  0  0  0  0  0  0
   28.7689   34.6323   63.3768 H   0  0  0  0  0  0  0  0  0  0  0  0
   30.1151   32.6298   63.8555 H   0  0  0  0  0  0  0  0  0  0  0  0
   32.3489   32.3707   62.8575 H   0  0  0  0  0  0  0  0  0  0  0  0
   33.2479   34.1151   61.3743 H   0  0  0  0  0  0  0  0  0  0  0  0
   30.3835   39.5381   61.9882 H   0  0  0  0  0  0  0  0  0  0  0  0
   29.7795   40.0545   64.3163 H   0  0  0  0  0  0  0  0  0  0  0  0
   30.9004   38.8896   66.1700 H   0  0  0  0  0  0  0  0  0  0  0  0
   32.6248   37.1964   65.7075 H   0  0  0  0  0  0  0  0  0  0  0  0
   33.2352   36.6588   63.3858 H   0  0  0  0  0  0  0  0  0  0  0  0
   33.6721   40.3969   58.5892 H   0  0  0  0  0  0  0  0  0  0  0  0
  1  2  1  0  0  0  0
  1 25  1  0  0  0  0
  1 26  1  0  0  0  0
  1 27  1  0  0  0  0
  2  3  1  0  0  0  0
  3 24  2  0  0  0  0
  3  4  1  0  0  0  0
  4  5  2  0  0  0  0
  4 28  1  0  0  0  0
  5  6  1  0  0  0  0
  5 29  1  0  0  0  0
  6 23  2  0  0  0  0
  6  7  1  0  0  0  0
  7  8  2  0  0  0  0
  8  9  1  0  0  0  0
  8 15  1  0  0  0  0
  9 14  2  0  0  0  0
  9 10  1  0  0  0  0
 10 11  2  0  0  0  0
 10 30  1  0  0  0  0
 11 12  1  0  0  0  0
 11 31  1  0  0  0  0
 12 13  2  0  0  0  0
 12 32  1  0  0  0  0
 13 14  1  0  0  0  0
 13 33  1  0  0  0  0
 14 34  1  0  0  0  0
 15 16  1  0  0  0  0
 15 22  2  0  0  0  0
 16 21  2  0  0  0  0
 16 17  1  0  0  0  0
 17 18  2  0  0  0  0
 17 35  1  0  0  0  0
 18 19  1  0  0  0  0
 18 36  1  0  0  0  0
 19 20  2  0  0  0  0
 19 37  1  0  0  0  0
 20 21  1  0  0  0  0
 20 38  1  0  0  0  0
 21 39  1  0  0  0  0
 22 23  1  0  0  0  0
 23 24  1  0  0  0  0
 24 40  1  0  0  0  0
M  END
$$$$
