ZINC000000005155      none
 OpenBabel11202420153D

 28 30  0  0  0  0  0  0  0  0999 V2000
   34.6462   38.2506   54.4075 O   0  0  0  0  0  0  0  0  0  0  0  0
   34.0182   37.3139   54.8536 C   0  0  0  0  0  0  0  0  0  0  0  0
   33.2451   36.4344   53.9092 C   0  0  0  0  0  0  0  0  0  0  0  0
   33.8021   35.0832   53.9573 N   0  0  0  0  0  0  0  0  0  0  0  0
   33.7673   34.3705   55.0329 C   0  0  0  0  0  0  0  0  0  0  0  0
   34.3630   33.0251   54.9788 C   0  0  0  0  0  0  0  0  0  0  0  0
   34.9393   32.3570   56.0223 C   0  0  0  0  0  0  0  0  0  0  0  0
   35.3723   31.1176   55.5343 C   0  0  0  0  0  0  0  0  0  0  0  0
   35.0546   31.0577   54.2201 C   0  0  0  0  0  0  0  0  0  0  0  0
   34.4336   32.2146   53.8714 N   0  0  0  0  0  0  0  0  0  0  0  0
   34.0976   32.4327   52.9880 H   0  0  0  0  0  0  0  0  0  0  0  0
   33.1762   34.8035   56.3101 C   0  0  0  0  0  0  0  0  0  0  0  0
   32.4382   33.8582   57.0382 C   0  0  0  0  0  0  0  0  0  0  0  0
   31.8519   34.2006   58.2358 C   0  0  0  0  0  0  0  0  0  0  0  0
   30.9358   33.0220   59.1221 Cl  0  0  0  0  0  0  0  0  0  0  0  0
   31.9973   35.4849   58.7365 C   0  0  0  0  0  0  0  0  0  0  0  0
   32.7194   36.4228   58.0324 C   0  0  0  0  0  0  0  0  0  0  0  0
   33.3171   36.0942   56.8138 C   0  0  0  0  0  0  0  0  0  0  0  0
   34.0310   37.0911   56.1657 N   0  0  0  0  0  0  0  0  0  0  0  0
   32.1976   36.4084   54.2095 H   0  0  0  0  0  0  0  0  0  0  0  0
   33.3247   36.8281   52.8959 H   0  0  0  0  0  0  0  0  0  0  0  0
   35.0413   32.7174   57.0352 H   0  0  0  0  0  0  0  0  0  0  0  0
   35.8700   30.3476   56.1049 H   0  0  0  0  0  0  0  0  0  0  0  0
   35.2574   30.2275   53.5599 H   0  0  0  0  0  0  0  0  0  0  0  0
   32.3253   32.8552   56.6539 H   0  0  0  0  0  0  0  0  0  0  0  0
   31.5399   35.7517   59.6777 H   0  0  0  0  0  0  0  0  0  0  0  0
   32.8246   37.4227   58.4269 H   0  0  0  0  0  0  0  0  0  0  0  0
   34.5830   37.6723   56.7119 H   0  0  0  0  0  0  0  0  0  0  0  0
  1  2  2  0  0  0  0
  2 19  1  0  0  0  0
  2  3  1  0  0  0  0
  3  4  1  0  0  0  0
  3 20  1  0  0  0  0
  3 21  1  0  0  0  0
  4  5  2  0  0  0  0
  5  6  1  0  0  0  0
  5 12  1  0  0  0  0
  6 10  1  0  0  0  0
  6  7  2  0  0  0  0
  7  8  1  0  0  0  0
  7 22  1  0  0  0  0
  8  9  2  0  0  0  0
  8 23  1  0  0  0  0
  9 10  1  0  0  0  0
  9 24  1  0  0  0  0
 10 11  1  0  0  0  0
 12 18  2  0  0  0  0
 12 13  1  0  0  0  0
 13 14  2  0  0  0  0
 13 25  1  0  0  0  0
 14 15  1  0  0  0  0
 14 16  1  0  0  0  0
 16 17  2  0  0  0  0
 16 26  1  0  0  0  0
 17 18  1  0  0  0  0
 17 27  1  0  0  0  0
 18 19  1  0  0  0  0
 19 28  1  0  0  0  0
M  END
$$$$
