ZINC000000002152      none
 OpenBabel11202420153D

 35 36  0  0  0  0  0  0  0  0999 V2000
   33.5985   39.9160   57.6657 C   0  0  0  0  0  0  0  0  0  0  0  0
   33.0786   38.6897   58.3706 C   0  0  0  0  0  0  0  0  0  0  0  0
   32.9294   37.5728   57.6871 N   0  0  0  0  0  0  0  0  0  0  0  0
   32.4751   36.4718   58.2687 C   0  0  0  0  0  0  0  0  0  0  0  0
   32.1549   36.5023   59.6120 C   0  0  0  0  0  0  0  0  0  0  0  0
   31.6355   35.2720   60.3104 C   0  0  0  0  0  0  0  0  0  0  0  0
   30.4898   35.6335   61.1488 N   0  0  0  0  0  0  0  0  0  0  0  0
   30.3692   35.1687   62.4245 C   0  0  0  0  0  0  0  0  0  0  0  0
   31.4053   34.2616   63.0369 C   0  0  0  0  0  0  0  0  0  0  0  0
   29.2960   35.5544   63.1002 C   0  0  0  0  0  0  0  0  0  0  0  0
   28.9252   35.1875   64.5141 C   0  0  0  0  0  0  0  0  0  0  0  0
   28.0795   33.9126   64.5050 C   0  0  0  0  0  0  0  0  0  0  0  0
   27.7279   33.5648   65.8457 O   0  0  0  0  0  0  0  0  0  0  0  0
   28.3935   36.5992   61.9889 S   0  0  0  0  0  0  0  0  0  0  0  0
   29.5156   36.4364   60.6927 C   0  0  0  0  0  0  0  0  0  0  0  0
   29.4427   36.9490   59.5898 O   0  0  0  0  0  0  0  0  0  0  0  0
   32.3193   37.7031   60.3053 C   0  0  0  0  0  0  0  0  0  0  0  0
   32.0069   37.7864   61.6525 N   0  0  0  0  0  0  0  0  0  0  0  0
   32.7862   38.7639   59.6531 N   0  0  0  0  0  0  0  0  0  0  0  0
   32.7615   40.4843   57.2602 H   0  0  0  0  0  0  0  0  0  0  0  0
   34.1497   40.5355   58.3732 H   0  0  0  0  0  0  0  0  0  0  0  0
   34.2607   39.6151   56.8538 H   0  0  0  0  0  0  0  0  0  0  0  0
   32.3563   35.5620   57.6991 H   0  0  0  0  0  0  0  0  0  0  0  0
   32.4230   34.8486   60.9339 H   0  0  0  0  0  0  0  0  0  0  0  0
   31.3250   34.5368   59.5681 H   0  0  0  0  0  0  0  0  0  0  0  0
   32.2160   34.8623   63.4492 H   0  0  0  0  0  0  0  0  0  0  0  0
   30.9483   33.6731   63.8324 H   0  0  0  0  0  0  0  0  0  0  0  0
   31.8009   33.5934   62.2719 H   0  0  0  0  0  0  0  0  0  0  0  0
   29.8317   35.0181   65.0951 H   0  0  0  0  0  0  0  0  0  0  0  0
   28.3531   36.0000   64.9621 H   0  0  0  0  0  0  0  0  0  0  0  0
   27.1729   34.0821   63.9240 H   0  0  0  0  0  0  0  0  0  0  0  0
   28.6515   33.1002   64.0571 H   0  0  0  0  0  0  0  0  0  0  0  0
   28.4874   33.3992   66.4212 H   0  0  0  0  0  0  0  0  0  0  0  0
   31.7408   36.9904   62.1387 H   0  0  0  0  0  0  0  0  0  0  0  0
   32.0543   38.6407   62.1094 H   0  0  0  0  0  0  0  0  0  0  0  0
  1  2  1  0  0  0  0
  1 20  1  0  0  0  0
  1 21  1  0  0  0  0
  1 22  1  0  0  0  0
  2 19  2  0  0  0  0
  2  3  1  0  0  0  0
  3  4  2  0  0  0  0
  4  5  1  0  0  0  0
  4 23  1  0  0  0  0
  5  6  1  0  0  0  0
  5 17  2  0  0  0  0
  6  7  1  0  0  0  0
  6 24  1  0  0  0  0
  6 25  1  0  0  0  0
  7 15  1  0  0  0  0
  7  8  1  0  0  0  0
  8  9  1  0  0  0  0
  8 10  2  0  0  0  0
  9 26  1  0  0  0  0
  9 27  1  0  0  0  0
  9 28  1  0  0  0  0
 10 11  1  0  0  0  0
 10 14  1  0  0  0  0
 11 12  1  0  0  0  0
 11 29  1  0  0  0  0
 11 30  1  0  0  0  0
 12 13  1  0  0  0  0
 12 31  1  0  0  0  0
 12 32  1  0  0  0  0
 13 33  1  0  0  0  0
 14 15  1  0  0  0  0
 15 16  2  0  0  0  0
 17 18  1  0  0  0  0
 17 19  1  0  0  0  0
 18 34  1  0  0  0  0
 18 35  1  0  0  0  0
M  END
$$$$
