ZINC000000057126      none
 OpenBabel11202420153D

 27 28  0  0  0  0  0  0  0  0999 V2000
   30.8310   39.7419   65.3842 N   0  0  0  0  0  0  0  0  0  0  0  0
   30.9850   38.8294   64.3340 C   0  0  0  0  0  0  0  0  0  0  0  0
   29.9591   38.6481   63.4156 C   0  0  0  0  0  0  0  0  0  0  0  0
   30.1110   37.7486   62.3795 C   0  0  0  0  0  0  0  0  0  0  0  0
   31.2901   37.0246   62.2554 C   0  0  0  0  0  0  0  0  0  0  0  0
   31.4840   35.8760   60.9334 S   0  0  0  0  0  0  0  0  0  0  0  0
   32.1875   36.8607   59.6528 C   0  0  0  0  0  0  0  0  0  0  0  0
   32.4406   38.2097   59.8708 C   0  0  0  0  0  0  0  0  0  0  0  0
   32.9915   38.9785   58.8648 C   0  0  0  0  0  0  0  0  0  0  0  0
   33.2909   38.4076   57.6412 C   0  0  0  0  0  0  0  0  0  0  0  0
   33.8807   39.2353   56.5647 N   0  0  0  0  0  0  0  0  0  0  0  0
   34.1015   40.4175   56.7572 O   0  0  0  0  0  0  0  0  0  0  0  0
   34.1496   38.7329   55.4881 O   0  0  0  0  0  0  0  0  0  0  0  0
   33.0355   37.0665   57.4188 C   0  0  0  0  0  0  0  0  0  0  0  0
   32.4901   36.2903   58.4221 C   0  0  0  0  0  0  0  0  0  0  0  0
   32.3141   37.2022   63.1772 C   0  0  0  0  0  0  0  0  0  0  0  0
   32.1639   38.1056   64.2103 C   0  0  0  0  0  0  0  0  0  0  0  0
   30.0078   40.2475   65.4707 H   0  0  0  0  0  0  0  0  0  0  0  0
   31.5474   39.8684   66.0258 H   0  0  0  0  0  0  0  0  0  0  0  0
   29.0423   39.2108   63.5123 H   0  0  0  0  0  0  0  0  0  0  0  0
   29.3130   37.6075   61.6654 H   0  0  0  0  0  0  0  0  0  0  0  0
   32.2064   38.6564   60.8258 H   0  0  0  0  0  0  0  0  0  0  0  0
   33.1885   40.0268   59.0335 H   0  0  0  0  0  0  0  0  0  0  0  0
   33.2669   36.6251   56.4607 H   0  0  0  0  0  0  0  0  0  0  0  0
   32.2947   35.2424   58.2492 H   0  0  0  0  0  0  0  0  0  0  0  0
   33.2293   36.6365   63.0834 H   0  0  0  0  0  0  0  0  0  0  0  0
   32.9614   38.2465   64.9248 H   0  0  0  0  0  0  0  0  0  0  0  0
  1  2  1  0  0  0  0
  1 18  1  0  0  0  0
  1 19  1  0  0  0  0
  2 17  2  0  0  0  0
  2  3  1  0  0  0  0
  3  4  2  0  0  0  0
  3 20  1  0  0  0  0
  4  5  1  0  0  0  0
  4 21  1  0  0  0  0
  5  6  1  0  0  0  0
  5 16  2  0  0  0  0
  6  7  1  0  0  0  0
  7 15  2  0  0  0  0
  7  8  1  0  0  0  0
  8  9  2  0  0  0  0
  8 22  1  0  0  0  0
  9 10  1  0  0  0  0
  9 23  1  0  0  0  0
 10 11  1  0  0  0  0
 10 14  2  0  0  0  0
 11 12  2  0  0  0  0
 11 13  2  0  0  0  0
 14 15  1  0  0  0  0
 14 24  1  0  0  0  0
 15 25  1  0  0  0  0
 16 17  1  0  0  0  0
 16 26  1  0  0  0  0
 17 27  1  0  0  0  0
M  END
$$$$
