ZINC000000041116      none
 OpenBabel11202420153D

 27 29  0  0  0  0  0  0  0  0999 V2000
   30.9191   34.5554   61.1961 O   0  0  0  0  0  0  0  0  0  0  0  0
   31.4101   35.6312   61.4754 C   0  0  0  0  0  0  0  0  0  0  0  0
   31.5706   36.0246   62.8894 C   0  0  0  0  0  0  0  0  0  0  0  0
   32.8415   36.2937   63.4031 C   0  0  0  0  0  0  0  0  0  0  0  0
   32.9843   36.6605   64.7246 C   0  0  0  0  0  0  0  0  0  0  0  0
   31.8722   36.7630   65.5426 C   0  0  0  0  0  0  0  0  0  0  0  0
   30.6106   36.4987   65.0422 C   0  0  0  0  0  0  0  0  0  0  0  0
   30.4526   36.1243   63.7219 C   0  0  0  0  0  0  0  0  0  0  0  0
   28.8688   35.7859   63.0967 Cl  0  0  0  0  0  0  0  0  0  0  0  0
   31.8079   36.4655   60.4946 N   0  0  0  0  0  0  0  0  0  0  0  0
   31.7771   37.7900   60.6708 C   0  0  0  0  0  0  0  0  0  0  0  0
   31.4130   38.3867   61.6665 O   0  0  0  0  0  0  0  0  0  0  0  0
   32.3766   38.5013   59.1633 S   0  0  0  0  0  0  0  0  0  0  0  0
   32.6318   36.9461   58.3598 C   0  0  0  0  0  0  0  0  0  0  0  0
   33.0982   36.6130   57.1008 C   0  0  0  0  0  0  0  0  0  0  0  0
   33.1962   35.2855   56.7312 C   0  0  0  0  0  0  0  0  0  0  0  0
   32.8247   34.3002   57.6297 C   0  0  0  0  0  0  0  0  0  0  0  0
   32.3610   34.6273   58.8825 C   0  0  0  0  0  0  0  0  0  0  0  0
   32.2525   35.9685   59.2795 C   0  0  0  0  0  0  0  0  0  0  0  0
   33.7103   36.2143   62.7666 H   0  0  0  0  0  0  0  0  0  0  0  0
   33.9665   36.8688   65.1224 H   0  0  0  0  0  0  0  0  0  0  0  0
   31.9907   37.0510   66.5767 H   0  0  0  0  0  0  0  0  0  0  0  0
   29.7474   36.5812   65.6861 H   0  0  0  0  0  0  0  0  0  0  0  0
   33.3857   37.3899   56.4077 H   0  0  0  0  0  0  0  0  0  0  0  0
   33.5592   35.0188   55.7498 H   0  0  0  0  0  0  0  0  0  0  0  0
   32.9002   33.2615   57.3435 H   0  0  0  0  0  0  0  0  0  0  0  0
   32.0764   33.8429   59.5682 H   0  0  0  0  0  0  0  0  0  0  0  0
  1  2  2  0  0  0  0
  2  3  1  0  0  0  0
  2 10  1  0  0  0  0
  3  8  2  0  0  0  0
  3  4  1  0  0  0  0
  4  5  2  0  0  0  0
  4 20  1  0  0  0  0
  5  6  1  0  0  0  0
  5 21  1  0  0  0  0
  6  7  2  0  0  0  0
  6 22  1  0  0  0  0
  7  8  1  0  0  0  0
  7 23  1  0  0  0  0
  8  9  1  0  0  0  0
 10 19  1  0  0  0  0
 10 11  1  0  0  0  0
 11 12  2  0  0  0  0
 11 13  1  0  0  0  0
 13 14  1  0  0  0  0
 14 19  2  0  0  0  0
 14 15  1  0  0  0  0
 15 16  2  0  0  0  0
 15 24  1  0  0  0  0
 16 17  1  0  0  0  0
 16 25  1  0  0  0  0
 17 18  2  0  0  0  0
 17 26  1  0  0  0  0
 18 19  1  0  0  0  0
 18 27  1  0  0  0  0
M  END
$$$$
