ZINC000000041218      none
 OpenBabel11202420153D

 29 31  0  0  0  0  0  0  0  0999 V2000
   32.3984   35.9149   58.9397 O   0  0  0  0  0  0  0  0  0  0  0  0
   32.8049   36.7102   58.1128 C   0  0  0  0  0  0  0  0  0  0  0  0
   32.9690   38.4628   58.3119 S   0  0  0  0  0  0  0  0  0  0  0  0
   33.5955   38.7357   56.6803 C   0  0  0  0  0  0  0  0  0  0  0  0
   33.9911   39.8810   56.0128 C   0  0  0  0  0  0  0  0  0  0  0  0
   34.4665   39.7947   54.7186 C   0  0  0  0  0  0  0  0  0  0  0  0
   34.5253   38.5594   54.0963 C   0  0  0  0  0  0  0  0  0  0  0  0
   34.1278   37.4191   54.7541 C   0  0  0  0  0  0  0  0  0  0  0  0
   33.6521   37.4807   56.0730 C   0  0  0  0  0  0  0  0  0  0  0  0
   33.2171   36.4378   56.8709 N   0  0  0  0  0  0  0  0  0  0  0  0
   33.2137   35.0622   56.3671 C   0  0  0  0  0  0  0  0  0  0  0  0
   34.4443   34.8000   55.6896 O   0  0  0  0  0  0  0  0  0  0  0  0
   34.6040   33.5594   55.1584 C   0  0  0  0  0  0  0  0  0  0  0  0
   35.1774   32.5480   55.9153 C   0  0  0  0  0  0  0  0  0  0  0  0
   35.3338   31.2862   55.3747 C   0  0  0  0  0  0  0  0  0  0  0  0
   34.9290   31.0338   54.0769 C   0  0  0  0  0  0  0  0  0  0  0  0
   34.3624   32.0418   53.3186 C   0  0  0  0  0  0  0  0  0  0  0  0
   34.1990   33.3036   53.8563 C   0  0  0  0  0  0  0  0  0  0  0  0
   33.9414   40.8397   56.5078 H   0  0  0  0  0  0  0  0  0  0  0  0
   34.7817   40.6844   54.1937 H   0  0  0  0  0  0  0  0  0  0  0  0
   34.8884   38.4903   53.0815 H   0  0  0  0  0  0  0  0  0  0  0  0
   34.1820   36.4656   54.2501 H   0  0  0  0  0  0  0  0  0  0  0  0
   33.1036   34.3698   57.2017 H   0  0  0  0  0  0  0  0  0  0  0  0
   32.3825   34.9311   55.6742 H   0  0  0  0  0  0  0  0  0  0  0  0
   35.4975   32.7456   56.9276 H   0  0  0  0  0  0  0  0  0  0  0  0
   35.7761   30.4974   55.9649 H   0  0  0  0  0  0  0  0  0  0  0  0
   35.0558   30.0480   53.6548 H   0  0  0  0  0  0  0  0  0  0  0  0
   34.0477   31.8423   52.3049 H   0  0  0  0  0  0  0  0  0  0  0  0
   33.7567   34.0906   53.2635 H   0  0  0  0  0  0  0  0  0  0  0  0
  1  2  2  0  0  0  0
  2 10  1  0  0  0  0
  2  3  1  0  0  0  0
  3  4  1  0  0  0  0
  4  9  2  0  0  0  0
  4  5  1  0  0  0  0
  5  6  2  0  0  0  0
  5 19  1  0  0  0  0
  6  7  1  0  0  0  0
  6 20  1  0  0  0  0
  7  8  2  0  0  0  0
  7 21  1  0  0  0  0
  8  9  1  0  0  0  0
  8 22  1  0  0  0  0
  9 10  1  0  0  0  0
 10 11  1  0  0  0  0
 11 12  1  0  0  0  0
 11 23  1  0  0  0  0
 11 24  1  0  0  0  0
 12 13  1  0  0  0  0
 13 18  2  0  0  0  0
 13 14  1  0  0  0  0
 14 15  2  0  0  0  0
 14 25  1  0  0  0  0
 15 16  1  0  0  0  0
 15 26  1  0  0  0  0
 16 17  2  0  0  0  0
 16 27  1  0  0  0  0
 17 18  1  0  0  0  0
 17 28  1  0  0  0  0
 18 29  1  0  0  0  0
M  END
$$$$
