ZINC000000030507      none
 OpenBabel11202420163D

 36 37  0  0  1  0  0  0  0  0999 V2000
   33.2007   39.1935   56.9314 C   0  0  0  0  0  0  0  0  0  0  0  0
   32.6331   37.7859   57.1248 C   0  0  1  0  0  0  0  0  0  0  0  0
   31.7812   37.6431   56.4601 H   0  0  0  0  0  0  0  0  0  0  0  0
   33.6414   36.8198   56.8211 O   0  0  0  0  0  0  0  0  0  0  0  0
   33.3749   35.9451   55.8157 C   0  0  0  0  0  0  0  0  0  0  0  0
   33.1274   36.4144   54.5339 C   0  0  0  0  0  0  0  0  0  0  0  0
   32.8620   35.5229   53.5124 C   0  0  0  0  0  0  0  0  0  0  0  0
   32.8325   34.1647   53.7691 C   0  0  0  0  0  0  0  0  0  0  0  0
   33.0733   33.6947   55.0469 C   0  0  0  0  0  0  0  0  0  0  0  0
   33.3444   34.5818   56.0706 C   0  0  0  0  0  0  0  0  0  0  0  0
   32.1887   37.6155   58.5547 C   0  0  0  0  0  0  0  0  0  0  0  0
   31.7945   38.5735   59.1855 O   0  0  0  0  0  0  0  0  0  0  0  0
   32.2240   36.3976   59.1307 N   0  0  0  0  0  0  0  0  0  0  0  0
   31.7863   36.2309   60.5188 C   0  0  0  0  0  0  0  0  0  0  0  0
   30.3217   36.6912   60.6701 C   0  0  0  0  0  0  0  0  0  0  0  0
   30.2794   37.3693   62.0629 C   0  0  0  0  0  0  0  0  0  0  0  0
   31.6445   38.0977   62.1310 C   0  0  0  0  0  0  0  0  0  0  0  0
   32.6271   37.1244   61.4475 C   0  0  0  0  0  0  0  0  0  0  0  0
   32.4317   39.9303   57.1631 H   0  0  0  0  0  0  0  0  0  0  0  0
   34.0528   39.3361   57.5961 H   0  0  0  0  0  0  0  0  0  0  0  0
   33.5223   39.3166   55.8973 H   0  0  0  0  0  0  0  0  0  0  0  0
   33.1461   37.4756   54.3338 H   0  0  0  0  0  0  0  0  0  0  0  0
   32.6729   35.8876   52.5136 H   0  0  0  0  0  0  0  0  0  0  0  0
   32.6209   33.4695   52.9700 H   0  0  0  0  0  0  0  0  0  0  0  0
   33.0491   32.6333   55.2449 H   0  0  0  0  0  0  0  0  0  0  0  0
   33.5321   34.2142   57.0686 H   0  0  0  0  0  0  0  0  0  0  0  0
   32.5391   35.6313   58.6262 H   0  0  0  0  0  0  0  0  0  0  0  0
   31.8824   35.1870   60.8177 H   0  0  0  0  0  0  0  0  0  0  0  0
   30.0643   37.4071   59.8894 H   0  0  0  0  0  0  0  0  0  0  0  0
   29.6478   35.8349   60.6411 H   0  0  0  0  0  0  0  0  0  0  0  0
   30.2001   36.6226   62.8530 H   0  0  0  0  0  0  0  0  0  0  0  0
   29.4574   38.0826   62.1237 H   0  0  0  0  0  0  0  0  0  0  0  0
   31.9349   38.2677   63.1676 H   0  0  0  0  0  0  0  0  0  0  0  0
   31.6030   39.0418   61.5877 H   0  0  0  0  0  0  0  0  0  0  0  0
   33.1306   36.5143   62.1974 H   0  0  0  0  0  0  0  0  0  0  0  0
   33.3608   37.6820   60.8654 H   0  0  0  0  0  0  0  0  0  0  0  0
  1  2  1  0  0  0  0
  1 19  1  0  0  0  0
  1 20  1  0  0  0  0
  1 21  1  0  0  0  0
  2  3  1  6  0  0  0
  2  4  1  0  0  0  0
  2 11  1  0  0  0  0
  4  5  1  0  0  0  0
  5 10  2  0  0  0  0
  5  6  1  0  0  0  0
  6  7  2  0  0  0  0
  6 22  1  0  0  0  0
  7  8  1  0  0  0  0
  7 23  1  0  0  0  0
  8  9  2  0  0  0  0
  8 24  1  0  0  0  0
  9 10  1  0  0  0  0
  9 25  1  0  0  0  0
 10 26  1  0  0  0  0
 11 12  2  0  0  0  0
 11 13  1  0  0  0  0
 13 14  1  0  0  0  0
 13 27  1  0  0  0  0
 14 18  1  0  0  0  0
 14 15  1  0  0  0  0
 14 28  1  0  0  0  0
 15 16  1  0  0  0  0
 15 29  1  0  0  0  0
 15 30  1  0  0  0  0
 16 17  1  0  0  0  0
 16 31  1  0  0  0  0
 16 32  1  0  0  0  0
 17 18  1  0  0  0  0
 17 33  1  0  0  0  0
 17 34  1  0  0  0  0
 18 35  1  0  0  0  0
 18 36  1  0  0  0  0
M  END
$$$$
