ZINC000000038357      none
 OpenBabel11202420153D

 37 39  0  0  0  0  0  0  0  0999 V2000
   31.9452   35.6256   61.4223 O   0  0  0  0  0  0  0  0  0  0  0  0
   31.9346   36.3400   60.4396 C   0  0  0  0  0  0  0  0  0  0  0  0
   31.6214   37.6455   60.5586 N   0  0  0  0  0  0  0  0  0  0  0  0
   31.2937   38.2031   61.8732 C   0  0  0  0  0  0  0  0  0  0  0  0
   30.0749   37.4768   62.4458 C   0  0  0  0  0  0  0  0  0  0  0  0
   29.7378   38.0504   63.7980 C   0  0  0  0  0  0  0  0  0  0  0  0
   30.3092   37.5162   64.9375 C   0  0  0  0  0  0  0  0  0  0  0  0
   30.0005   38.0424   66.1778 C   0  0  0  0  0  0  0  0  0  0  0  0
   29.1198   39.1034   66.2802 C   0  0  0  0  0  0  0  0  0  0  0  0
   28.5470   39.6388   65.1424 C   0  0  0  0  0  0  0  0  0  0  0  0
   28.8602   39.1164   63.8987 C   0  0  0  0  0  0  0  0  0  0  0  0
   28.3055   39.6429   62.7850 F   0  0  0  0  0  0  0  0  0  0  0  0
   32.2663   35.7757   59.1091 C   0  0  0  0  0  0  0  0  0  0  0  0
   31.9715   34.4303   58.8426 C   0  0  0  0  0  0  0  0  0  0  0  0
   32.2718   33.8985   57.6218 C   0  0  0  0  0  0  0  0  0  0  0  0
   32.8750   34.7328   56.6619 C   0  0  0  0  0  0  0  0  0  0  0  0
   33.2104   34.2524   55.3859 C   0  0  0  0  0  0  0  0  0  0  0  0
   33.7928   35.0886   54.4831 C   0  0  0  0  0  0  0  0  0  0  0  0
   34.0617   36.4178   54.8074 C   0  0  0  0  0  0  0  0  0  0  0  0
   33.7506   36.9183   56.0330 C   0  0  0  0  0  0  0  0  0  0  0  0
   33.1471   36.0854   56.9949 C   0  0  0  0  0  0  0  0  0  0  0  0
   32.8267   36.5514   58.2017 N   0  0  0  0  0  0  0  0  0  0  0  0
   31.6129   38.2157   59.7740 H   0  0  0  0  0  0  0  0  0  0  0  0
   31.0693   39.2650   61.7716 H   0  0  0  0  0  0  0  0  0  0  0  0
   32.1425   38.0737   62.5446 H   0  0  0  0  0  0  0  0  0  0  0  0
   29.2261   37.6063   61.7743 H   0  0  0  0  0  0  0  0  0  0  0  0
   30.2992   36.4149   62.5472 H   0  0  0  0  0  0  0  0  0  0  0  0
   30.9972   36.6875   64.8588 H   0  0  0  0  0  0  0  0  0  0  0  0
   30.4474   37.6243   67.0677 H   0  0  0  0  0  0  0  0  0  0  0  0
   28.8791   39.5135   67.2498 H   0  0  0  0  0  0  0  0  0  0  0  0
   27.8589   40.4673   65.2226 H   0  0  0  0  0  0  0  0  0  0  0  0
   31.5079   33.8170   59.6011 H   0  0  0  0  0  0  0  0  0  0  0  0
   32.0527   32.8648   57.3984 H   0  0  0  0  0  0  0  0  0  0  0  0
   33.0082   33.2248   55.1221 H   0  0  0  0  0  0  0  0  0  0  0  0
   34.0505   34.7171   53.5022 H   0  0  0  0  0  0  0  0  0  0  0  0
   34.5245   37.0605   54.0730 H   0  0  0  0  0  0  0  0  0  0  0  0
   33.9650   37.9504   56.2676 H   0  0  0  0  0  0  0  0  0  0  0  0
  1  2  2  0  0  0  0
  2  3  1  0  0  0  0
  2 13  1  0  0  0  0
  3  4  1  0  0  0  0
  3 23  1  0  0  0  0
  4  5  1  0  0  0  0
  4 24  1  0  0  0  0
  4 25  1  0  0  0  0
  5  6  1  0  0  0  0
  5 26  1  0  0  0  0
  5 27  1  0  0  0  0
  6 11  2  0  0  0  0
  6  7  1  0  0  0  0
  7  8  2  0  0  0  0
  7 28  1  0  0  0  0
  8  9  1  0  0  0  0
  8 29  1  0  0  0  0
  9 10  2  0  0  0  0
  9 30  1  0  0  0  0
 10 11  1  0  0  0  0
 10 31  1  0  0  0  0
 11 12  1  0  0  0  0
 13 22  2  0  0  0  0
 13 14  1  0  0  0  0
 14 15  2  0  0  0  0
 14 32  1  0  0  0  0
 15 16  1  0  0  0  0
 15 33  1  0  0  0  0
 16 21  2  0  0  0  0
 16 17  1  0  0  0  0
 17 18  2  0  0  0  0
 17 34  1  0  0  0  0
 18 19  1  0  0  0  0
 18 35  1  0  0  0  0
 19 20  2  0  0  0  0
 19 36  1  0  0  0  0
 20 21  1  0  0  0  0
 20 37  1  0  0  0  0
 21 22  1  0  0  0  0
M  END
$$$$
