ZINC000000042124      none
 OpenBabel11202420153D

 43 44  0  0  0  0  0  0  0  0999 V2000
   33.4089   37.6934   57.0532 C   0  0  0  0  0  0  0  0  0  0  0  0
   32.5364   37.5838   58.2769 C   0  0  0  0  0  0  0  0  0  0  0  0
   31.8638   36.4058   58.5430 C   0  0  0  0  0  0  0  0  0  0  0  0
   31.0634   36.3053   59.6656 C   0  0  0  0  0  0  0  0  0  0  0  0
   30.9355   37.3828   60.5221 C   0  0  0  0  0  0  0  0  0  0  0  0
   29.9149   37.2548   61.9526 S   0  0  0  0  0  0  0  0  0  0  0  0
   29.5407   38.5814   62.2986 O   0  0  0  0  0  0  0  0  0  0  0  0
   28.9719   36.2269   61.6821 O   0  0  0  0  0  0  0  0  0  0  0  0
   30.8690   36.7010   63.1876 N   0  0  0  0  0  0  0  0  0  0  0  0
   32.0391   37.4734   63.6123 C   0  0  0  0  0  0  0  0  0  0  0  0
   31.8866   37.8625   65.0841 C   0  0  0  0  0  0  0  0  0  0  0  0
   31.7754   36.6163   65.9241 C   0  0  0  0  0  0  0  0  0  0  0  0
   31.8144   35.5245   65.3974 O   0  0  0  0  0  0  0  0  0  0  0  0
   31.6327   36.7151   67.2606 N   0  0  0  0  0  0  0  0  0  0  0  0
   31.5901   38.0306   67.9138 C   0  0  0  0  0  0  0  0  0  0  0  0
   30.3187   38.1086   68.7727 C   0  0  0  0  0  0  0  0  0  0  0  0
   30.2917   36.9247   69.7422 C   0  0  0  0  0  0  0  0  0  0  0  0
   30.2580   35.6154   68.9505 C   0  0  0  0  0  0  0  0  0  0  0  0
   31.5230   35.5093   68.0930 C   0  0  0  0  0  0  0  0  0  0  0  0
   31.6039   38.5626   60.2532 C   0  0  0  0  0  0  0  0  0  0  0  0
   32.4089   38.6612   59.1337 C   0  0  0  0  0  0  0  0  0  0  0  0
   32.8148   38.0564   56.2146 H   0  0  0  0  0  0  0  0  0  0  0  0
   34.2241   38.3900   57.2494 H   0  0  0  0  0  0  0  0  0  0  0  0
   33.8192   36.7132   56.8105 H   0  0  0  0  0  0  0  0  0  0  0  0
   31.9634   35.5640   57.8738 H   0  0  0  0  0  0  0  0  0  0  0  0
   30.5377   35.3850   59.8733 H   0  0  0  0  0  0  0  0  0  0  0  0
   30.6531   35.8650   63.6299 H   0  0  0  0  0  0  0  0  0  0  0  0
   32.9379   36.8696   63.4874 H   0  0  0  0  0  0  0  0  0  0  0  0
   32.1195   38.3748   63.0047 H   0  0  0  0  0  0  0  0  0  0  0  0
   32.7570   38.4373   65.4002 H   0  0  0  0  0  0  0  0  0  0  0  0
   30.9876   38.4662   65.2091 H   0  0  0  0  0  0  0  0  0  0  0  0
   32.4695   38.1533   68.5459 H   0  0  0  0  0  0  0  0  0  0  0  0
   31.5696   38.8140   67.1563 H   0  0  0  0  0  0  0  0  0  0  0  0
   29.4395   38.0723   68.1296 H   0  0  0  0  0  0  0  0  0  0  0  0
   30.3185   39.0410   69.3371 H   0  0  0  0  0  0  0  0  0  0  0  0
   29.4043   36.9912   70.3719 H   0  0  0  0  0  0  0  0  0  0  0  0
   31.1835   36.9476   70.3684 H   0  0  0  0  0  0  0  0  0  0  0  0
   29.3792   35.6027   68.3056 H   0  0  0  0  0  0  0  0  0  0  0  0
   30.2151   34.7735   69.6414 H   0  0  0  0  0  0  0  0  0  0  0  0
   31.4583   34.6287   67.4538 H   0  0  0  0  0  0  0  0  0  0  0  0
   32.3971   35.4306   68.7393 H   0  0  0  0  0  0  0  0  0  0  0  0
   31.5005   39.4059   60.9199 H   0  0  0  0  0  0  0  0  0  0  0  0
   32.9346   39.5814   58.9259 H   0  0  0  0  0  0  0  0  0  0  0  0
  1  2  1  0  0  0  0
  1 22  1  0  0  0  0
  1 23  1  0  0  0  0
  1 24  1  0  0  0  0
  2 21  2  0  0  0  0
  2  3  1  0  0  0  0
  3  4  2  0  0  0  0
  3 25  1  0  0  0  0
  4  5  1  0  0  0  0
  4 26  1  0  0  0  0
  5  6  1  0  0  0  0
  5 20  2  0  0  0  0
  6  7  2  0  0  0  0
  6  8  2  0  0  0  0
  6  9  1  0  0  0  0
  9 10  1  0  0  0  0
  9 27  1  0  0  0  0
 10 11  1  0  0  0  0
 10 28  1  0  0  0  0
 10 29  1  0  0  0  0
 11 12  1  0  0  0  0
 11 30  1  0  0  0  0
 11 31  1  0  0  0  0
 12 13  2  0  0  0  0
 12 14  1  0  0  0  0
 14 19  1  0  0  0  0
 14 15  1  0  0  0  0
 15 16  1  0  0  0  0
 15 32  1  0  0  0  0
 15 33  1  0  0  0  0
 16 17  1  0  0  0  0
 16 34  1  0  0  0  0
 16 35  1  0  0  0  0
 17 18  1  0  0  0  0
 17 36  1  0  0  0  0
 17 37  1  0  0  0  0
 18 19  1  0  0  0  0
 18 38  1  0  0  0  0
 18 39  1  0  0  0  0
 19 40  1  0  0  0  0
 19 41  1  0  0  0  0
 20 21  1  0  0  0  0
 20 42  1  0  0  0  0
 21 43  1  0  0  0  0
M  END
$$$$
