ZINC000000022774      none
 OpenBabel11202420153D

 41 41  0  0  1  0  0  0  0  0999 V2000
   29.5190   36.1109   60.8712 C   0  0  0  0  0  0  0  0  0  0  0  0
   30.7965   36.6334   61.5313 C   0  0  0  0  0  0  0  0  0  0  0  0
   31.5464   37.5351   60.5486 C   0  0  0  0  0  0  0  0  0  0  0  0
   31.6879   35.4530   61.9227 C   0  0  0  0  0  0  0  0  0  0  0  0
   30.4326   37.4347   62.7830 C   0  0  2  0  0  0  0  0  0  0  0  0
   31.7101   37.9573   63.4433 C   0  0  0  0  0  0  0  0  0  0  0  0
   31.3462   38.7584   64.6949 C   0  0  0  0  0  0  0  0  0  0  0  0
   30.5964   37.8568   65.6776 C   0  0  2  0  0  0  0  0  0  0  0  0
   30.2326   38.6579   66.9291 C   0  0  0  0  0  0  0  0  0  0  0  0
   31.3511   39.5396   67.2885 N   0  3  0  0  0  0  0  0  0  0  0  0
   32.1549   38.9807   67.5330 H   0  0  0  0  0  0  0  0  0  0  0  0
   31.5790   40.1310   66.5035 H   0  0  0  0  0  0  0  0  0  0  0  0
   31.0880   40.1127   68.0762 H   0  0  0  0  0  0  0  0  0  0  0  0
   31.4878   36.6764   66.0688 C   0  0  0  0  0  0  0  0  0  0  0  0
   32.7461   37.1912   66.7190 C   0  0  0  0  0  0  0  0  0  0  0  0
   33.8331   36.9404   66.2270 O   0  0  0  0  0  0  0  0  0  0  0  0
   32.6770   37.8583   67.7372 O   0  0  0  0  0  1  0  0  0  0  0  0
   29.3189   37.3342   65.0173 C   0  0  0  0  0  0  0  0  0  0  0  0
   29.6827   36.5330   63.7656 C   0  0  0  0  0  0  0  0  0  0  0  0
   28.8841   36.9518   60.5923 H   0  0  0  0  0  0  0  0  0  0  0  0
   29.7783   35.5401   59.9795 H   0  0  0  0  0  0  0  0  0  0  0  0
   28.9848   35.4686   61.5712 H   0  0  0  0  0  0  0  0  0  0  0  0
   32.4565   37.9073   61.0190 H   0  0  0  0  0  0  0  0  0  0  0  0
   31.8056   36.9642   59.6571 H   0  0  0  0  0  0  0  0  0  0  0  0
   30.9114   38.3759   60.2699 H   0  0  0  0  0  0  0  0  0  0  0  0
   31.1536   34.8108   62.6228 H   0  0  0  0  0  0  0  0  0  0  0  0
   31.9470   34.8822   61.0310 H   0  0  0  0  0  0  0  0  0  0  0  0
   32.5979   35.8253   62.3932 H   0  0  0  0  0  0  0  0  0  0  0  0
   29.7976   38.2756   62.5043 H   0  0  0  0  0  0  0  0  0  0  0  0
   32.2443   38.5996   62.7432 H   0  0  0  0  0  0  0  0  0  0  0  0
   32.3452   37.1164   63.7220 H   0  0  0  0  0  0  0  0  0  0  0  0
   30.7112   39.5993   64.4161 H   0  0  0  0  0  0  0  0  0  0  0  0
   32.2563   39.1307   65.1653 H   0  0  0  0  0  0  0  0  0  0  0  0
   29.3453   39.2593   66.7304 H   0  0  0  0  0  0  0  0  0  0  0  0
   30.0304   37.9733   67.7528 H   0  0  0  0  0  0  0  0  0  0  0  0
   31.7470   36.1056   65.1771 H   0  0  0  0  0  0  0  0  0  0  0  0
   30.9536   36.0341   66.7689 H   0  0  0  0  0  0  0  0  0  0  0  0
   28.7847   36.6919   65.7173 H   0  0  0  0  0  0  0  0  0  0  0  0
   28.6839   38.1751   64.7385 H   0  0  0  0  0  0  0  0  0  0  0  0
   28.7727   36.1607   63.2953 H   0  0  0  0  0  0  0  0  0  0  0  0
   30.3178   35.6921   64.0444 H   0  0  0  0  0  0  0  0  0  0  0  0
  1  2  1  0  0  0  0
  1 20  1  0  0  0  0
  1 21  1  0  0  0  0
  1 22  1  0  0  0  0
  2  3  1  0  0  0  0
  2  4  1  0  0  0  0
  2  5  1  0  0  0  0
  3 23  1  0  0  0  0
  3 24  1  0  0  0  0
  3 25  1  0  0  0  0
  4 26  1  0  0  0  0
  4 27  1  0  0  0  0
  4 28  1  0  0  0  0
  5 19  1  0  0  0  0
  5  6  1  0  0  0  0
  5 29  1  6  0  0  0
  6  7  1  0  0  0  0
  6 30  1  0  0  0  0
  6 31  1  0  0  0  0
  7  8  1  0  0  0  0
  7 32  1  0  0  0  0
  7 33  1  0  0  0  0
  8  9  1  1  0  0  0
  8 14  1  0  0  0  0
  8 18  1  0  0  0  0
  9 10  1  0  0  0  0
  9 34  1  0  0  0  0
  9 35  1  0  0  0  0
 10 11  1  0  0  0  0
 10 12  1  0  0  0  0
 10 13  1  0  0  0  0
 14 15  1  0  0  0  0
 14 36  1  0  0  0  0
 14 37  1  0  0  0  0
 15 16  2  0  0  0  0
 15 17  1  0  0  0  0
 18 19  1  0  0  0  0
 18 38  1  0  0  0  0
 18 39  1  0  0  0  0
 19 40  1  0  0  0  0
 19 41  1  0  0  0  0
M  CHG  1  10   1
M  END
$$$$
