ZINC000000024466      none
 OpenBabel11202420153D

 44 46  0  0  0  0  0  0  0  0999 V2000
   31.7384   33.7463   60.2354 C   0  0  0  0  0  0  0  0  0  0  0  0
   32.0120   34.6842   59.0880 C   0  0  0  0  0  0  0  0  0  0  0  0
   31.9333   34.3798   57.8214 N   0  0  0  0  0  0  0  0  0  0  0  0
   32.2443   35.4583   57.0871 C   0  0  0  0  0  0  0  0  0  0  0  0
   32.5206   36.4710   57.9306 C   0  0  0  0  0  0  0  0  0  0  0  0
   32.9068   37.8503   57.5568 N   0  0  0  0  0  0  0  0  0  0  0  0
   33.0005   38.1594   56.3824 O   0  0  0  0  0  0  0  0  0  0  0  0
   33.1309   38.6761   58.4235 O   0  0  0  0  0  0  0  0  0  0  0  0
   32.3791   35.9790   59.2001 N   0  0  0  0  0  0  0  0  0  0  0  0
   32.5820   36.7201   60.4474 C   0  0  0  0  0  0  0  0  0  0  0  0
   31.2651   37.3723   60.8731 C   0  0  0  0  0  0  0  0  0  0  0  0
   31.4630   38.0952   62.0897 O   0  0  0  0  0  0  0  0  0  0  0  0
   31.9050   37.2859   63.1814 C   0  0  0  0  0  0  0  0  0  0  0  0
   32.0801   38.1465   64.4061 C   0  0  0  0  0  0  0  0  0  0  0  0
   33.0231   37.8092   65.3588 C   0  0  0  0  0  0  0  0  0  0  0  0
   33.1871   38.6013   66.4798 C   0  0  0  0  0  0  0  0  0  0  0  0
   32.4007   39.7250   66.6531 C   0  0  0  0  0  0  0  0  0  0  0  0
   31.4540   40.0594   65.7029 C   0  0  0  0  0  0  0  0  0  0  0  0
   31.2937   39.2701   64.5793 C   0  0  0  0  0  0  0  0  0  0  0  0
   30.8804   36.2168   63.4611 C   0  0  0  0  0  0  0  0  0  0  0  0
   31.2778   34.9954   63.9723 C   0  0  0  0  0  0  0  0  0  0  0  0
   30.3375   34.0165   64.2335 C   0  0  0  0  0  0  0  0  0  0  0  0
   29.0009   34.2550   63.9737 C   0  0  0  0  0  0  0  0  0  0  0  0
   28.6041   35.4745   63.4575 C   0  0  0  0  0  0  0  0  0  0  0  0
   29.5439   36.4554   63.2013 C   0  0  0  0  0  0  0  0  0  0  0  0
   30.6839   33.8010   60.5058 H   0  0  0  0  0  0  0  0  0  0  0  0
   31.9848   32.7270   59.9381 H   0  0  0  0  0  0  0  0  0  0  0  0
   32.3486   34.0325   61.0920 H   0  0  0  0  0  0  0  0  0  0  0  0
   32.2650   35.5071   56.0083 H   0  0  0  0  0  0  0  0  0  0  0  0
   33.3364   37.4916   60.2930 H   0  0  0  0  0  0  0  0  0  0  0  0
   32.9169   36.0352   61.2264 H   0  0  0  0  0  0  0  0  0  0  0  0
   30.5108   36.6008   61.0275 H   0  0  0  0  0  0  0  0  0  0  0  0
   30.9302   38.0570   60.0939 H   0  0  0  0  0  0  0  0  0  0  0  0
   32.8565   36.8195   62.9260 H   0  0  0  0  0  0  0  0  0  0  0  0
   33.6344   36.9289   65.2255 H   0  0  0  0  0  0  0  0  0  0  0  0
   33.9263   38.3398   67.2224 H   0  0  0  0  0  0  0  0  0  0  0  0
   32.5257   40.3413   67.5312 H   0  0  0  0  0  0  0  0  0  0  0  0
   30.8395   40.9370   65.8385 H   0  0  0  0  0  0  0  0  0  0  0  0
   30.5539   39.5312   63.8371 H   0  0  0  0  0  0  0  0  0  0  0  0
   32.3226   34.8075   64.1712 H   0  0  0  0  0  0  0  0  0  0  0  0
   30.6475   33.0636   64.6364 H   0  0  0  0  0  0  0  0  0  0  0  0
   28.2667   33.4886   64.1737 H   0  0  0  0  0  0  0  0  0  0  0  0
   27.5600   35.6608   63.2541 H   0  0  0  0  0  0  0  0  0  0  0  0
   29.2339   37.4080   62.7977 H   0  0  0  0  0  0  0  0  0  0  0  0
  1  2  1  0  0  0  0
  1 26  1  0  0  0  0
  1 27  1  0  0  0  0
  1 28  1  0  0  0  0
  2  9  1  0  0  0  0
  2  3  2  0  0  0  0
  3  4  1  0  0  0  0
  4  5  2  0  0  0  0
  4 29  1  0  0  0  0
  5  6  1  0  0  0  0
  5  9  1  0  0  0  0
  6  7  2  0  0  0  0
  6  8  2  0  0  0  0
  9 10  1  0  0  0  0
 10 11  1  0  0  0  0
 10 30  1  0  0  0  0
 10 31  1  0  0  0  0
 11 12  1  0  0  0  0
 11 32  1  0  0  0  0
 11 33  1  0  0  0  0
 12 13  1  0  0  0  0
 13 14  1  0  0  0  0
 13 20  1  0  0  0  0
 13 34  1  0  0  0  0
 14 19  2  0  0  0  0
 14 15  1  0  0  0  0
 15 16  2  0  0  0  0
 15 35  1  0  0  0  0
 16 17  1  0  0  0  0
 16 36  1  0  0  0  0
 17 18  2  0  0  0  0
 17 37  1  0  0  0  0
 18 19  1  0  0  0  0
 18 38  1  0  0  0  0
 19 39  1  0  0  0  0
 20 25  2  0  0  0  0
 20 21  1  0  0  0  0
 21 22  2  0  0  0  0
 21 40  1  0  0  0  0
 22 23  1  0  0  0  0
 22 41  1  0  0  0  0
 23 24  2  0  0  0  0
 23 42  1  0  0  0  0
 24 25  1  0  0  0  0
 24 43  1  0  0  0  0
 25 44  1  0  0  0  0
M  END
$$$$
