ZINC000000038393      none
 OpenBabel11202420153D

 29 30  0  0  0  0  0  0  0  0999 V2000
   34.6424   40.9893   59.2447 C   0  0  0  0  0  0  0  0  0  0  0  0
   33.4006   40.6711   58.6135 O   0  0  0  0  0  0  0  0  0  0  0  0
   33.2717   39.4182   58.1012 C   0  0  0  0  0  0  0  0  0  0  0  0
   33.6461   39.1613   56.7922 C   0  0  0  0  0  0  0  0  0  0  0  0
   33.5149   37.8867   56.2728 C   0  0  0  0  0  0  0  0  0  0  0  0
   33.0105   36.8652   57.0564 C   0  0  0  0  0  0  0  0  0  0  0  0
   32.8731   35.5027   56.4945 N   0  0  0  0  0  0  0  0  0  0  0  0
   33.2043   35.2824   55.3433 O   0  0  0  0  0  0  0  0  0  0  0  0
   32.4288   34.6017   57.1834 O   0  0  0  0  0  0  0  0  0  0  0  0
   32.6347   37.1130   58.3631 C   0  0  0  0  0  0  0  0  0  0  0  0
   32.7684   38.3883   58.8929 C   0  0  0  0  0  0  0  0  0  0  0  0
   32.3933   38.6408   60.2183 N   0  0  0  0  0  0  0  0  0  0  0  0
   31.4066   37.9210   60.7881 C   0  0  0  0  0  0  0  0  0  0  0  0
   30.8414   37.0514   60.1508 O   0  0  0  0  0  0  0  0  0  0  0  0
   31.0141   38.1852   62.1750 C   0  0  0  0  0  0  0  0  0  0  0  0
   29.7679   38.0042   62.7048 C   0  0  0  0  0  0  0  0  0  0  0  0
   29.8449   38.3783   64.0546 C   0  0  0  0  0  0  0  0  0  0  0  0
   31.1196   38.7672   64.2881 C   0  0  0  0  0  0  0  0  0  0  0  0
   31.7995   39.3767   65.9440 Br  0  0  0  0  0  0  0  0  0  0  0  0
   31.8217   38.6444   63.1539 O   0  0  0  0  0  0  0  0  0  0  0  0
   34.6124   42.0164   59.6085 H   0  0  0  0  0  0  0  0  0  0  0  0
   34.8084   40.3119   60.0825 H   0  0  0  0  0  0  0  0  0  0  0  0
   35.4538   40.8825   58.5249 H   0  0  0  0  0  0  0  0  0  0  0  0
   34.0408   39.9568   56.1776 H   0  0  0  0  0  0  0  0  0  0  0  0
   33.8077   37.6883   55.2524 H   0  0  0  0  0  0  0  0  0  0  0  0
   32.2407   36.3133   58.9727 H   0  0  0  0  0  0  0  0  0  0  0  0
   32.8436   39.3338   60.7262 H   0  0  0  0  0  0  0  0  0  0  0  0
   28.8927   37.6431   62.1850 H   0  0  0  0  0  0  0  0  0  0  0  0
   29.0382   38.3593   64.7726 H   0  0  0  0  0  0  0  0  0  0  0  0
  1  2  1  0  0  0  0
  1 21  1  0  0  0  0
  1 22  1  0  0  0  0
  1 23  1  0  0  0  0
  2  3  1  0  0  0  0
  3 11  2  0  0  0  0
  3  4  1  0  0  0  0
  4  5  2  0  0  0  0
  4 24  1  0  0  0  0
  5  6  1  0  0  0  0
  5 25  1  0  0  0  0
  6  7  1  0  0  0  0
  6 10  2  0  0  0  0
  7  8  2  0  0  0  0
  7  9  2  0  0  0  0
 10 11  1  0  0  0  0
 10 26  1  0  0  0  0
 11 12  1  0  0  0  0
 12 13  1  0  0  0  0
 12 27  1  0  0  0  0
 13 14  2  0  0  0  0
 13 15  1  0  0  0  0
 15 20  1  0  0  0  0
 15 16  2  0  0  0  0
 16 17  1  0  0  0  0
 16 28  1  0  0  0  0
 17 18  2  0  0  0  0
 17 29  1  0  0  0  0
 18 19  1  0  0  0  0
 18 20  1  0  0  0  0
M  END
$$$$
