ZINC000000034199      none
 OpenBabel11202420153D

 35 37  0  0  0  0  0  0  0  0999 V2000
   29.2381   36.3095   65.2406 C   0  0  0  0  0  0  0  0  0  0  0  0
   30.7316   36.4909   65.1539 C   0  0  0  0  0  0  0  0  0  0  0  0
   31.4437   36.8674   66.2599 N   0  0  0  0  0  0  0  0  0  0  0  0
   30.9827   37.0170   67.1001 H   0  0  0  0  0  0  0  0  0  0  0  0
   32.7774   37.0316   66.1931 C   0  0  0  0  0  0  0  0  0  0  0  0
   33.3906   37.3666   67.1882 O   0  0  0  0  0  0  0  0  0  0  0  0
   33.4423   36.8307   65.0402 N   0  0  0  0  0  0  0  0  0  0  0  0
   34.4039   36.9538   65.0094 H   0  0  0  0  0  0  0  0  0  0  0  0
   32.7768   36.4594   63.9278 C   0  0  0  0  0  0  0  0  0  0  0  0
   33.3775   36.2782   62.8841 O   0  0  0  0  0  0  0  0  0  0  0  0
   31.3741   36.2773   63.9857 C   0  0  0  0  0  0  0  0  0  0  0  0
   30.4778   35.7850   62.5508 S   0  0  0  0  0  0  0  0  0  0  0  0
   29.8484   34.5526   62.8740 O   0  0  0  0  0  0  0  0  0  0  0  0
   29.7623   36.9314   62.1115 O   0  0  0  0  0  0  0  0  0  0  0  0
   31.5893   35.4469   61.3706 N   0  0  0  0  0  0  0  0  0  0  0  0
   32.0164   36.4556   60.5039 C   0  0  0  0  0  0  0  0  0  0  0  0
   32.0470   37.7878   60.9345 C   0  0  0  0  0  0  0  0  0  0  0  0
   32.4483   38.7548   60.1477 N   0  0  0  0  0  0  0  0  0  0  0  0
   32.8367   38.5189   58.8904 C   0  0  0  0  0  0  0  0  0  0  0  0
   33.2583   39.5690   58.0556 C   0  0  0  0  0  0  0  0  0  0  0  0
   33.6487   39.3029   56.7796 C   0  0  0  0  0  0  0  0  0  0  0  0
   33.6388   38.0017   56.2807 C   0  0  0  0  0  0  0  0  0  0  0  0
   33.2373   36.9590   57.0584 C   0  0  0  0  0  0  0  0  0  0  0  0
   32.8275   37.1966   58.3809 C   0  0  0  0  0  0  0  0  0  0  0  0
   32.4056   36.1453   59.2149 C   0  0  0  0  0  0  0  0  0  0  0  0
   28.9047   36.5210   66.2566 H   0  0  0  0  0  0  0  0  0  0  0  0
   28.9809   35.2827   64.9801 H   0  0  0  0  0  0  0  0  0  0  0  0
   28.7480   36.9936   64.5477 H   0  0  0  0  0  0  0  0  0  0  0  0
   31.9438   34.5484   61.2813 H   0  0  0  0  0  0  0  0  0  0  0  0
   31.7370   38.0230   61.9420 H   0  0  0  0  0  0  0  0  0  0  0  0
   33.2718   40.5834   58.4259 H   0  0  0  0  0  0  0  0  0  0  0  0
   33.9718   40.1134   56.1431 H   0  0  0  0  0  0  0  0  0  0  0  0
   33.9540   37.8181   55.2643 H   0  0  0  0  0  0  0  0  0  0  0  0
   33.2335   35.9549   56.6608 H   0  0  0  0  0  0  0  0  0  0  0  0
   32.3861   35.1261   58.8584 H   0  0  0  0  0  0  0  0  0  0  0  0
  1  2  1  0  0  0  0
  1 26  1  0  0  0  0
  1 27  1  0  0  0  0
  1 28  1  0  0  0  0
  2 11  2  0  0  0  0
  2  3  1  0  0  0  0
  3  4  1  0  0  0  0
  3  5  1  0  0  0  0
  5  6  2  0  0  0  0
  5  7  1  0  0  0  0
  7  8  1  0  0  0  0
  7  9  1  0  0  0  0
  9 10  2  0  0  0  0
  9 11  1  0  0  0  0
 11 12  1  0  0  0  0
 12 13  2  0  0  0  0
 12 14  2  0  0  0  0
 12 15  1  0  0  0  0
 15 16  1  0  0  0  0
 15 29  1  0  0  0  0
 16 25  2  0  0  0  0
 16 17  1  0  0  0  0
 17 18  2  0  0  0  0
 17 30  1  0  0  0  0
 18 19  1  0  0  0  0
 19 24  2  0  0  0  0
 19 20  1  0  0  0  0
 20 21  2  0  0  0  0
 20 31  1  0  0  0  0
 21 22  1  0  0  0  0
 21 32  1  0  0  0  0
 22 23  2  0  0  0  0
 22 33  1  0  0  0  0
 23 24  1  0  0  0  0
 23 34  1  0  0  0  0
 24 25  1  0  0  0  0
 25 35  1  0  0  0  0
M  END
$$$$
