ZINC000000037397      none
 OpenBabel11202420153D

 30 31  0  0  0  0  0  0  0  0999 V2000
   28.6519   36.9315   61.9159 C   0  0  0  0  0  0  0  0  0  0  0  0
   29.9651   36.8399   62.6956 C   0  0  0  0  0  0  0  0  0  0  0  0
   30.7314   35.6824   62.2271 N   0  0  0  0  0  0  0  0  0  0  0  0
   30.6465   34.4945   62.7081 N   0  0  0  0  0  0  0  0  0  0  0  0
   31.4589   33.6784   62.0859 C   0  0  0  0  0  0  0  0  0  0  0  0
   32.1306   34.4081   61.1033 C   0  0  0  0  0  0  0  0  0  0  0  0
   31.6432   35.7009   61.2091 C   0  0  0  0  0  0  0  0  0  0  0  0
   32.0326   36.8600   60.3947 C   0  0  0  0  0  0  0  0  0  0  0  0
   31.9966   37.9774   60.8715 O   0  0  0  0  0  0  0  0  0  0  0  0
   32.4298   36.6842   59.1188 N   0  0  0  0  0  0  0  0  0  0  0  0
   32.5189   35.4603   58.4429 N   0  0  0  0  0  0  0  0  0  0  0  0
   32.9397   35.6926   57.2275 C   0  0  0  0  0  0  0  0  0  0  0  0
   33.1748   34.6527   56.1623 C   0  0  0  0  0  0  0  0  0  0  0  0
   33.1350   37.0737   57.0826 C   0  0  0  0  0  0  0  0  0  0  0  0
   33.6823   37.8823   55.6472 Cl  0  0  0  0  0  0  0  0  0  0  0  0
   32.8162   37.6650   58.2555 C   0  0  0  0  0  0  0  0  0  0  0  0
   32.8767   39.1410   58.5539 C   0  0  0  0  0  0  0  0  0  0  0  0
   28.0817   37.7926   62.2643 H   0  0  0  0  0  0  0  0  0  0  0  0
   28.8674   37.0443   60.8533 H   0  0  0  0  0  0  0  0  0  0  0  0
   28.0709   36.0229   62.0744 H   0  0  0  0  0  0  0  0  0  0  0  0
   29.7497   36.7272   63.7581 H   0  0  0  0  0  0  0  0  0  0  0  0
   30.5460   37.7485   62.5371 H   0  0  0  0  0  0  0  0  0  0  0  0
   31.5873   32.6268   62.2957 H   0  0  0  0  0  0  0  0  0  0  0  0
   32.8724   34.0427   60.4086 H   0  0  0  0  0  0  0  0  0  0  0  0
   34.2036   34.2978   56.2218 H   0  0  0  0  0  0  0  0  0  0  0  0
   32.4925   33.8163   56.3143 H   0  0  0  0  0  0  0  0  0  0  0  0
   32.9981   35.0919   55.1805 H   0  0  0  0  0  0  0  0  0  0  0  0
   31.9192   39.6007   58.3090 H   0  0  0  0  0  0  0  0  0  0  0  0
   33.0907   39.2890   59.6124 H   0  0  0  0  0  0  0  0  0  0  0  0
   33.6639   39.6005   57.9563 H   0  0  0  0  0  0  0  0  0  0  0  0
  1  2  1  0  0  0  0
  1 18  1  0  0  0  0
  1 19  1  0  0  0  0
  1 20  1  0  0  0  0
  2  3  1  0  0  0  0
  2 21  1  0  0  0  0
  2 22  1  0  0  0  0
  3  7  1  0  0  0  0
  3  4  1  0  0  0  0
  4  5  2  0  0  0  0
  5  6  1  0  0  0  0
  5 23  1  0  0  0  0
  6  7  2  0  0  0  0
  6 24  1  0  0  0  0
  7  8  1  0  0  0  0
  8  9  2  0  0  0  0
  8 10  1  0  0  0  0
 10 16  1  0  0  0  0
 10 11  1  0  0  0  0
 11 12  2  0  0  0  0
 12 13  1  0  0  0  0
 12 14  1  0  0  0  0
 13 25  1  0  0  0  0
 13 26  1  0  0  0  0
 13 27  1  0  0  0  0
 14 15  1  0  0  0  0
 14 16  2  0  0  0  0
 16 17  1  0  0  0  0
 17 28  1  0  0  0  0
 17 29  1  0  0  0  0
 17 30  1  0  0  0  0
M  END
$$$$
