ZINC000000005879      none
 OpenBabel11202420153D

 34 36  0  0  1  0  0  0  0  0999 V2000
   30.8771   33.2718   58.9080 C   0  0  0  0  0  0  0  0  0  0  0  0
   32.0890   34.0680   58.4198 C   0  0  0  0  0  0  0  0  0  0  0  0
   31.7681   34.7162   57.1874 O   0  0  0  0  0  0  0  0  0  0  0  0
   32.8379   35.4910   56.6424 C   0  0  2  0  0  0  0  0  0  0  0  0
   32.9014   36.8278   57.3354 C   0  0  0  0  0  0  0  0  0  0  0  0
   32.5383   36.9944   58.5540 N   0  0  0  0  0  0  0  0  0  0  0  0
   32.7150   38.3992   58.9483 C   0  0  0  0  0  0  0  0  0  0  0  0
   33.2772   39.0706   57.6788 C   0  0  0  0  0  0  0  0  0  0  0  0
   33.3532   37.9589   56.7156 N   0  0  0  0  0  0  0  0  0  0  0  0
   32.6142   35.6980   55.1383 C   0  0  0  0  0  0  0  0  0  0  0  0
   32.5723   34.4118   54.5106 O   0  0  0  0  0  0  0  0  0  0  0  0
   33.5445   33.5271   54.8636 C   0  0  0  0  0  0  0  0  0  0  0  0
   33.7845   32.4225   54.0598 C   0  0  0  0  0  0  0  0  0  0  0  0
   34.7641   31.5122   54.4084 C   0  0  0  0  0  0  0  0  0  0  0  0
   35.5072   31.6995   55.5591 C   0  0  0  0  0  0  0  0  0  0  0  0
   35.2739   32.7986   56.3638 C   0  0  0  0  0  0  0  0  0  0  0  0
   34.2933   33.7168   56.0191 C   0  0  0  0  0  0  0  0  0  0  0  0
   34.0768   34.7958   56.8200 O   0  0  0  0  0  0  0  0  0  0  0  0
   30.0359   33.9479   59.0614 H   0  0  0  0  0  0  0  0  0  0  0  0
   30.6100   32.5229   58.1624 H   0  0  0  0  0  0  0  0  0  0  0  0
   31.1219   32.7773   59.8480 H   0  0  0  0  0  0  0  0  0  0  0  0
   32.9300   33.3918   58.2665 H   0  0  0  0  0  0  0  0  0  0  0  0
   32.3561   34.8168   59.1653 H   0  0  0  0  0  0  0  0  0  0  0  0
   33.4261   38.4794   59.7705 H   0  0  0  0  0  0  0  0  0  0  0  0
   31.7594   38.8443   59.2254 H   0  0  0  0  0  0  0  0  0  0  0  0
   32.5995   39.8453   57.3204 H   0  0  0  0  0  0  0  0  0  0  0  0
   34.2676   39.4846   57.8683 H   0  0  0  0  0  0  0  0  0  0  0  0
   33.6686   38.0210   55.8004 H   0  0  0  0  0  0  0  0  0  0  0  0
   31.6700   36.2174   54.9752 H   0  0  0  0  0  0  0  0  0  0  0  0
   33.4336   36.2841   54.7220 H   0  0  0  0  0  0  0  0  0  0  0  0
   33.2052   32.2737   53.1607 H   0  0  0  0  0  0  0  0  0  0  0  0
   34.9491   30.6528   53.7812 H   0  0  0  0  0  0  0  0  0  0  0  0
   36.2714   30.9859   55.8295 H   0  0  0  0  0  0  0  0  0  0  0  0
   35.8557   32.9425   57.2623 H   0  0  0  0  0  0  0  0  0  0  0  0
  1  2  1  0  0  0  0
  1 19  1  0  0  0  0
  1 20  1  0  0  0  0
  1 21  1  0  0  0  0
  2  3  1  0  0  0  0
  2 22  1  0  0  0  0
  2 23  1  0  0  0  0
  4  3  1  1  0  0  0
  4 18  1  0  0  0  0
  4  5  1  0  0  0  0
  4 10  1  0  0  0  0
  5  9  1  0  0  0  0
  5  6  2  0  0  0  0
  6  7  1  0  0  0  0
  7  8  1  0  0  0  0
  7 24  1  0  0  0  0
  7 25  1  0  0  0  0
  8  9  1  0  0  0  0
  8 26  1  0  0  0  0
  8 27  1  0  0  0  0
  9 28  1  0  0  0  0
 10 11  1  0  0  0  0
 10 29  1  0  0  0  0
 10 30  1  0  0  0  0
 11 12  1  0  0  0  0
 12 17  2  0  0  0  0
 12 13  1  0  0  0  0
 13 14  2  0  0  0  0
 13 31  1  0  0  0  0
 14 15  1  0  0  0  0
 14 32  1  0  0  0  0
 15 16  2  0  0  0  0
 15 33  1  0  0  0  0
 16 17  1  0  0  0  0
 16 34  1  0  0  0  0
 17 18  1  0  0  0  0
M  END
$$$$
