ZINC000000045245      none
 OpenBabel11202420153D

 19 19  0  0  0  0  0  0  0  0999 V2000
   28.6460   37.2307   62.3685 N   0  0  0  0  0  0  0  0  0  0  0  0
   29.6979   37.4899   62.0269 C   0  0  0  0  0  0  0  0  0  0  0  0
   31.0240   37.8165   61.5962 C   0  0  0  0  0  0  0  0  0  0  0  0
   32.1550   37.2699   62.2836 C   0  0  0  0  0  0  0  0  0  0  0  0
   33.0524   36.8360   62.8287 N   0  0  0  0  0  0  0  0  0  0  0  0
   31.2032   38.6195   60.5688 N   0  0  0  0  0  0  0  0  0  0  0  0
   32.3978   38.9137   60.1809 N   0  0  0  0  0  0  0  0  0  0  0  0
   32.8093   38.5949   58.8863 C   0  0  0  0  0  0  0  0  0  0  0  0
   33.2231   39.5997   58.0197 C   0  0  0  0  0  0  0  0  0  0  0  0
   33.6250   39.2815   56.7377 C   0  0  0  0  0  0  0  0  0  0  0  0
   33.6258   37.9624   56.3185 C   0  0  0  0  0  0  0  0  0  0  0  0
   34.1388   37.5656   54.7082 Cl  0  0  0  0  0  0  0  0  0  0  0  0
   33.2189   36.9590   57.1806 C   0  0  0  0  0  0  0  0  0  0  0  0
   32.8111   37.2711   58.4623 C   0  0  0  0  0  0  0  0  0  0  0  0
   33.0099   39.3568   60.7892 H   0  0  0  0  0  0  0  0  0  0  0  0
   33.2266   40.6288   58.3475 H   0  0  0  0  0  0  0  0  0  0  0  0
   33.9436   40.0622   56.0628 H   0  0  0  0  0  0  0  0  0  0  0  0
   33.2205   35.9306   56.8506 H   0  0  0  0  0  0  0  0  0  0  0  0
   32.4944   36.4877   59.1347 H   0  0  0  0  0  0  0  0  0  0  0  0
  1  2  3  0  0  0  0
  2  3  1  0  0  0  0
  3  4  1  0  0  0  0
  3  6  2  0  0  0  0
  4  5  3  0  0  0  0
  6  7  1  0  0  0  0
  7  8  1  0  0  0  0
  7 15  1  0  0  0  0
  8 14  2  0  0  0  0
  8  9  1  0  0  0  0
  9 10  2  0  0  0  0
  9 16  1  0  0  0  0
 10 11  1  0  0  0  0
 10 17  1  0  0  0  0
 11 12  1  0  0  0  0
 11 13  2  0  0  0  0
 13 14  1  0  0  0  0
 13 18  1  0  0  0  0
 14 19  1  0  0  0  0
M  END
$$$$
