ZINC000000033900      none
 OpenBabel11202420153D

 30 31  0  0  0  0  0  0  0  0999 V2000
   33.5644   35.4513   52.6607 C   0  0  0  0  0  0  0  0  0  0  0  0
   33.9415   34.0318   52.9979 C   0  0  0  0  0  0  0  0  0  0  0  0
   33.9237   33.0230   52.1702 N   0  0  0  0  0  0  0  0  0  0  0  0
   34.3200   31.9153   52.8145 C   0  0  0  0  0  0  0  0  0  0  0  0
   34.5997   32.2516   54.0881 C   0  0  0  0  0  0  0  0  0  0  0  0
   35.0771   31.3442   55.1560 N   0  0  0  0  0  0  0  0  0  0  0  0
   35.2532   30.1629   54.9176 O   0  0  0  0  0  0  0  0  0  0  0  0
   35.2936   31.7791   56.2729 O   0  0  0  0  0  0  0  0  0  0  0  0
   34.3540   33.5929   54.2065 N   0  0  0  0  0  0  0  0  0  0  0  0
   34.5148   34.4026   55.4169 C   0  0  0  0  0  0  0  0  0  0  0  0
   33.2031   34.4081   56.2047 C   0  0  0  0  0  0  0  0  0  0  0  0
   33.3624   35.2106   57.4043 O   0  0  0  0  0  0  0  0  0  0  0  0
   33.0706   36.5239   57.3057 C   0  0  0  0  0  0  0  0  0  0  0  0
   33.2256   37.1036   56.2478 O   0  0  0  0  0  0  0  0  0  0  0  0
   32.5673   37.2514   58.4721 C   0  0  0  0  0  0  0  0  0  0  0  0
   32.7668   38.5805   58.7250 C   0  0  0  0  0  0  0  0  0  0  0  0
   32.1814   39.0049   59.8936 C   0  0  0  0  0  0  0  0  0  0  0  0
   31.5249   38.0591   60.5763 C   0  0  0  0  0  0  0  0  0  0  0  0
   31.6087   36.5566   59.7721 S   0  0  0  0  0  0  0  0  0  0  0  0
   34.4478   35.9904   52.3183 H   0  0  0  0  0  0  0  0  0  0  0  0
   32.8116   35.4497   51.8724 H   0  0  0  0  0  0  0  0  0  0  0  0
   33.1611   35.9405   53.5472 H   0  0  0  0  0  0  0  0  0  0  0  0
   34.4046   30.9277   52.3857 H   0  0  0  0  0  0  0  0  0  0  0  0
   34.7759   35.4237   55.1390 H   0  0  0  0  0  0  0  0  0  0  0  0
   35.3075   33.9800   56.0342 H   0  0  0  0  0  0  0  0  0  0  0  0
   32.9420   33.3869   56.4826 H   0  0  0  0  0  0  0  0  0  0  0  0
   32.4103   34.8307   55.5874 H   0  0  0  0  0  0  0  0  0  0  0  0
   33.3247   39.2325   58.0694 H   0  0  0  0  0  0  0  0  0  0  0  0
   32.2462   40.0272   60.2359 H   0  0  0  0  0  0  0  0  0  0  0  0
   31.0102   38.2250   61.5111 H   0  0  0  0  0  0  0  0  0  0  0  0
  1  2  1  0  0  0  0
  1 20  1  0  0  0  0
  1 21  1  0  0  0  0
  1 22  1  0  0  0  0
  2  9  1  0  0  0  0
  2  3  2  0  0  0  0
  3  4  1  0  0  0  0
  4  5  2  0  0  0  0
  4 23  1  0  0  0  0
  5  6  1  0  0  0  0
  5  9  1  0  0  0  0
  6  7  2  0  0  0  0
  6  8  2  0  0  0  0
  9 10  1  0  0  0  0
 10 11  1  0  0  0  0
 10 24  1  0  0  0  0
 10 25  1  0  0  0  0
 11 12  1  0  0  0  0
 11 26  1  0  0  0  0
 11 27  1  0  0  0  0
 12 13  1  0  0  0  0
 13 14  2  0  0  0  0
 13 15  1  0  0  0  0
 15 19  1  0  0  0  0
 15 16  2  0  0  0  0
 16 17  1  0  0  0  0
 16 28  1  0  0  0  0
 17 18  2  0  0  0  0
 17 29  1  0  0  0  0
 18 19  1  0  0  0  0
 18 30  1  0  0  0  0
M  END
$$$$
