ZINC000000045612      none
 OpenBabel11202420153D

 29 32  0  0  0  0  0  0  0  0999 V2000
   35.0695   38.8181   52.5591 C   0  0  0  0  0  0  0  0  0  0  0  0
   34.7038   37.4904   52.7406 C   0  0  0  0  0  0  0  0  0  0  0  0
   34.2154   37.0618   53.9429 C   0  0  0  0  0  0  0  0  0  0  0  0
   34.0818   37.9613   54.9952 C   0  0  0  0  0  0  0  0  0  0  0  0
   34.4501   39.3063   54.8179 C   0  0  0  0  0  0  0  0  0  0  0  0
   34.9485   39.7200   53.5753 C   0  0  0  0  0  0  0  0  0  0  0  0
   34.2219   39.9496   55.9803 N   0  0  0  0  0  0  0  0  0  0  0  0
   33.7438   39.1361   56.8547 N   0  0  0  0  0  0  0  0  0  0  0  0
   33.6370   37.8557   56.2916 N   0  0  0  0  0  0  0  0  0  0  0  0
   33.1429   36.6455   56.9530 C   0  0  0  0  0  0  0  0  0  0  0  0
   32.7684   36.9618   58.3335 N   0  0  0  0  0  0  0  0  0  0  0  0
   32.2692   35.9659   59.1633 C   0  0  0  0  0  0  0  0  0  0  0  0
   31.8842   36.0564   60.4150 N   0  0  0  0  0  0  0  0  0  0  0  0
   31.5097   34.9740   60.8000 O   0  0  0  0  0  0  0  0  0  0  0  0
   31.5636   34.0749   59.9940 N   0  0  0  0  0  0  0  0  0  0  0  0
   32.0382   34.5354   58.8584 C   0  0  0  0  0  0  0  0  0  0  0  0
   32.2807   33.8054   57.5887 C   0  0  0  0  0  0  0  0  0  0  0  0
   33.4687   33.6630   56.9591 N   0  0  0  0  0  0  0  0  0  0  0  0
   33.2164   32.9523   55.8882 C   0  0  0  0  0  0  0  0  0  0  0  0
   31.9066   32.6852   55.8929 O   0  0  0  0  0  0  0  0  0  0  0  0
   31.3864   33.1749   56.8731 N   0  0  0  0  0  0  0  0  0  0  0  0
   35.4536   39.1400   51.6024 H   0  0  0  0  0  0  0  0  0  0  0  0
   34.8062   36.7907   51.9242 H   0  0  0  0  0  0  0  0  0  0  0  0
   33.9337   36.0276   54.0754 H   0  0  0  0  0  0  0  0  0  0  0  0
   35.2363   40.7498   53.4228 H   0  0  0  0  0  0  0  0  0  0  0  0
   33.9253   35.8865   56.9535 H   0  0  0  0  0  0  0  0  0  0  0  0
   32.2715   36.2687   56.4174 H   0  0  0  0  0  0  0  0  0  0  0  0
   32.8689   37.8667   58.6682 H   0  0  0  0  0  0  0  0  0  0  0  0
   33.9320   32.6407   55.1418 H   0  0  0  0  0  0  0  0  0  0  0  0
  1  6  2  0  0  0  0
  1  2  1  0  0  0  0
  1 22  1  0  0  0  0
  2  3  2  0  0  0  0
  2 23  1  0  0  0  0
  3  4  1  0  0  0  0
  3 24  1  0  0  0  0
  4  9  1  0  0  0  0
  4  5  2  0  0  0  0
  5  6  1  0  0  0  0
  5  7  1  0  0  0  0
  6 25  1  0  0  0  0
  7  8  2  0  0  0  0
  8  9  1  0  0  0  0
  9 10  1  0  0  0  0
 10 11  1  0  0  0  0
 10 26  1  0  0  0  0
 10 27  1  0  0  0  0
 11 12  1  0  0  0  0
 11 28  1  0  0  0  0
 12 16  1  0  0  0  0
 12 13  2  0  0  0  0
 13 14  1  0  0  0  0
 14 15  1  0  0  0  0
 15 16  2  0  0  0  0
 16 17  1  0  0  0  0
 17 21  2  0  0  0  0
 17 18  1  0  0  0  0
 18 19  2  0  0  0  0
 19 20  1  0  0  0  0
 19 29  1  0  0  0  0
 20 21  1  0  0  0  0
M  END
$$$$
