ZINC000000000428      none
 OpenBabel11202420153D

 31 32  0  0  1  0  0  0  0  0999 V2000
   30.2410   36.8878   64.6920 C   0  0  0  0  0  0  0  0  0  0  0  0
   30.4696   36.8489   63.2586 O   0  0  0  0  0  0  0  0  0  0  0  0
   30.3821   35.6507   62.6598 C   0  0  0  0  0  0  0  0  0  0  0  0
   30.1233   34.6670   63.3118 O   0  0  0  0  0  0  0  0  0  0  0  0
   30.6069   35.5324   61.1743 C   0  0  1  0  0  0  0  0  0  0  0  0
   30.4954   34.4914   60.8718 H   0  0  0  0  0  0  0  0  0  0  0  0
   29.5807   36.3917   60.4332 C   0  0  0  0  0  0  0  0  0  0  0  0
   31.9250   35.9828   60.8548 O   0  0  0  0  0  0  0  0  0  0  0  0
   32.2909   35.9416   59.5464 C   0  0  0  0  0  0  0  0  0  0  0  0
   32.2973   34.7181   58.8701 C   0  0  0  0  0  0  0  0  0  0  0  0
   32.6532   34.6454   57.5593 C   0  0  0  0  0  0  0  0  0  0  0  0
   33.0208   35.8143   56.8704 C   0  0  0  0  0  0  0  0  0  0  0  0
   33.3944   35.7747   55.5162 C   0  0  0  0  0  0  0  0  0  0  0  0
   33.7450   36.9257   54.8801 C   0  0  0  0  0  0  0  0  0  0  0  0
   33.7397   38.1470   55.5516 C   0  0  0  0  0  0  0  0  0  0  0  0
   33.3837   38.2241   56.8629 C   0  0  0  0  0  0  0  0  0  0  0  0
   33.0154   37.0564   57.5533 C   0  0  0  0  0  0  0  0  0  0  0  0
   32.6425   37.0975   58.9076 C   0  0  0  0  0  0  0  0  0  0  0  0
   32.6279   38.6075   59.7639 Cl  0  0  0  0  0  0  0  0  0  0  0  0
   30.9733   36.2555   65.1939 H   0  0  0  0  0  0  0  0  0  0  0  0
   30.3413   37.9131   65.0482 H   0  0  0  0  0  0  0  0  0  0  0  0
   29.2368   36.5240   64.9098 H   0  0  0  0  0  0  0  0  0  0  0  0
   29.6922   37.4329   60.7359 H   0  0  0  0  0  0  0  0  0  0  0  0
   29.7433   36.3062   59.3588 H   0  0  0  0  0  0  0  0  0  0  0  0
   28.5753   36.0482   60.6770 H   0  0  0  0  0  0  0  0  0  0  0  0
   32.0152   33.8180   59.3958 H   0  0  0  0  0  0  0  0  0  0  0  0
   32.6539   33.6931   57.0499 H   0  0  0  0  0  0  0  0  0  0  0  0
   33.4036   34.8356   54.9831 H   0  0  0  0  0  0  0  0  0  0  0  0
   34.0316   36.8922   53.8394 H   0  0  0  0  0  0  0  0  0  0  0  0
   34.0219   39.0458   55.0234 H   0  0  0  0  0  0  0  0  0  0  0  0
   33.3838   39.1775   57.3703 H   0  0  0  0  0  0  0  0  0  0  0  0
  1  2  1  0  0  0  0
  1 20  1  0  0  0  0
  1 21  1  0  0  0  0
  1 22  1  0  0  0  0
  2  3  1  0  0  0  0
  3  4  2  0  0  0  0
  3  5  1  0  0  0  0
  5  6  1  6  0  0  0
  5  7  1  0  0  0  0
  5  8  1  0  0  0  0
  7 23  1  0  0  0  0
  7 24  1  0  0  0  0
  7 25  1  0  0  0  0
  8  9  1  0  0  0  0
  9 18  2  0  0  0  0
  9 10  1  0  0  0  0
 10 11  2  0  0  0  0
 10 26  1  0  0  0  0
 11 12  1  0  0  0  0
 11 27  1  0  0  0  0
 12 17  2  0  0  0  0
 12 13  1  0  0  0  0
 13 14  2  0  0  0  0
 13 28  1  0  0  0  0
 14 15  1  0  0  0  0
 14 29  1  0  0  0  0
 15 16  2  0  0  0  0
 15 30  1  0  0  0  0
 16 17  1  0  0  0  0
 16 31  1  0  0  0  0
 17 18  1  0  0  0  0
 18 19  1  0  0  0  0
M  END
$$$$
