ZINC000000000811      none
 OpenBabel11202420153D

 39 40  0  0  0  0  0  0  0  0999 V2000
   32.7940   39.8620   57.0922 C   0  0  0  0  0  0  0  0  0  0  0  0
   33.5302   39.1370   58.0793 O   0  0  0  0  0  0  0  0  0  0  0  0
   32.8585   38.1759   58.7685 C   0  0  0  0  0  0  0  0  0  0  0  0
   32.2029   38.4984   59.9419 C   0  0  0  0  0  0  0  0  0  0  0  0
   31.5184   37.5094   60.6525 C   0  0  0  0  0  0  0  0  0  0  0  0
   30.8229   37.8496   61.9094 C   0  0  0  0  0  0  0  0  0  0  0  0
   29.9325   38.6776   61.9065 O   0  0  0  0  0  0  0  0  0  0  0  0
   31.1749   37.2424   63.0600 N   0  0  0  0  0  0  0  0  0  0  0  0
   32.2450   36.2328   63.0871 C   0  0  0  0  0  0  0  0  0  0  0  0
   33.2307   36.6093   64.2048 C   0  0  0  0  0  0  0  0  0  0  0  0
   32.5077   36.8002   65.4232 O   0  0  0  0  0  0  0  0  0  0  0  0
   31.5636   37.8729   65.3815 C   0  0  0  0  0  0  0  0  0  0  0  0
   30.4961   37.5652   64.3252 C   0  0  0  0  0  0  0  0  0  0  0  0
   31.4933   36.1979   60.1718 C   0  0  0  0  0  0  0  0  0  0  0  0
   32.1457   35.8819   58.9949 C   0  0  0  0  0  0  0  0  0  0  0  0
   32.1218   34.6053   58.5264 O   0  0  0  0  0  0  0  0  0  0  0  0
   31.4033   33.6432   59.3013 C   0  0  0  0  0  0  0  0  0  0  0  0
   32.8277   36.8692   58.2889 C   0  0  0  0  0  0  0  0  0  0  0  0
   33.4690   36.5558   57.1324 O   0  0  0  0  0  0  0  0  0  0  0  0
   32.6706   36.0319   56.0692 C   0  0  0  0  0  0  0  0  0  0  0  0
   32.4178   39.1700   56.3387 H   0  0  0  0  0  0  0  0  0  0  0  0
   31.9562   40.3731   57.5667 H   0  0  0  0  0  0  0  0  0  0  0  0
   33.4462   40.5956   56.6186 H   0  0  0  0  0  0  0  0  0  0  0  0
   32.2237   39.5130   60.3114 H   0  0  0  0  0  0  0  0  0  0  0  0
   31.8176   35.2501   63.2865 H   0  0  0  0  0  0  0  0  0  0  0  0
   32.7628   36.2208   62.1280 H   0  0  0  0  0  0  0  0  0  0  0  0
   33.7495   37.5311   63.9411 H   0  0  0  0  0  0  0  0  0  0  0  0
   33.9573   35.8072   64.3344 H   0  0  0  0  0  0  0  0  0  0  0  0
   32.0760   38.7992   65.1221 H   0  0  0  0  0  0  0  0  0  0  0  0
   31.0899   37.9800   66.3573 H   0  0  0  0  0  0  0  0  0  0  0  0
   29.8553   38.4359   64.1864 H   0  0  0  0  0  0  0  0  0  0  0  0
   29.8957   36.7144   64.6470 H   0  0  0  0  0  0  0  0  0  0  0  0
   30.9651   35.4315   60.7196 H   0  0  0  0  0  0  0  0  0  0  0  0
   31.8392   33.5811   60.2984 H   0  0  0  0  0  0  0  0  0  0  0  0
   30.3592   33.9462   59.3793 H   0  0  0  0  0  0  0  0  0  0  0  0
   31.4636   32.6685   58.8172 H   0  0  0  0  0  0  0  0  0  0  0  0
   31.9091   36.7615   55.7934 H   0  0  0  0  0  0  0  0  0  0  0  0
   33.3045   35.8249   55.2071 H   0  0  0  0  0  0  0  0  0  0  0  0
   32.1895   35.1103   56.3963 H   0  0  0  0  0  0  0  0  0  0  0  0
  1  2  1  0  0  0  0
  1 21  1  0  0  0  0
  1 22  1  0  0  0  0
  1 23  1  0  0  0  0
  2  3  1  0  0  0  0
  3 18  2  0  0  0  0
  3  4  1  0  0  0  0
  4  5  2  0  0  0  0
  4 24  1  0  0  0  0
  5  6  1  0  0  0  0
  5 14  1  0  0  0  0
  6  7  2  0  0  0  0
  6  8  1  0  0  0  0
  8 13  1  0  0  0  0
  8  9  1  0  0  0  0
  9 10  1  0  0  0  0
  9 25  1  0  0  0  0
  9 26  1  0  0  0  0
 10 11  1  0  0  0  0
 10 27  1  0  0  0  0
 10 28  1  0  0  0  0
 11 12  1  0  0  0  0
 12 13  1  0  0  0  0
 12 29  1  0  0  0  0
 12 30  1  0  0  0  0
 13 31  1  0  0  0  0
 13 32  1  0  0  0  0
 14 15  2  0  0  0  0
 14 33  1  0  0  0  0
 15 16  1  0  0  0  0
 15 18  1  0  0  0  0
 16 17  1  0  0  0  0
 17 34  1  0  0  0  0
 17 35  1  0  0  0  0
 17 36  1  0  0  0  0
 18 19  1  0  0  0  0
 19 20  1  0  0  0  0
 20 37  1  0  0  0  0
 20 38  1  0  0  0  0
 20 39  1  0  0  0  0
M  END
$$$$
