ZINC000000049301      none
 OpenBabel11202420153D

 32 34  0  0  0  0  0  0  0  0999 V2000
   29.4387   37.2436   62.3776 C   0  0  0  0  0  0  0  0  0  0  0  0
   30.5883   38.1942   62.1643 C   0  0  0  0  0  0  0  0  0  0  0  0
   30.4034   39.3871   62.2168 O   0  0  0  0  0  0  0  0  0  0  0  0
   31.8181   37.7157   61.9156 O   0  0  0  0  0  0  0  0  0  0  0  0
   32.1491   37.5121   60.6144 C   0  0  0  0  0  0  0  0  0  0  0  0
   32.7420   38.5335   59.8824 C   0  0  0  0  0  0  0  0  0  0  0  0
   33.0842   38.3295   58.5637 C   0  0  0  0  0  0  0  0  0  0  0  0
   32.8294   37.0949   57.9609 C   0  0  0  0  0  0  0  0  0  0  0  0
   33.1946   36.8717   56.5488 C   0  0  0  0  0  0  0  0  0  0  0  0
   33.7603   37.8511   55.8937 N   0  0  0  0  0  0  0  0  0  0  0  0
   34.1225   37.7165   54.5951 C   0  0  0  0  0  0  0  0  0  0  0  0
   34.7275   38.7580   53.8894 C   0  0  0  0  0  0  0  0  0  0  0  0
   35.0786   38.5734   52.5693 C   0  0  0  0  0  0  0  0  0  0  0  0
   35.8309   39.8693   51.6927 Cl  0  0  0  0  0  0  0  0  0  0  0  0
   34.8380   37.3618   51.9315 C   0  0  0  0  0  0  0  0  0  0  0  0
   34.2418   36.3198   52.6076 C   0  0  0  0  0  0  0  0  0  0  0  0
   33.8792   36.4857   53.9422 C   0  0  0  0  0  0  0  0  0  0  0  0
   33.2411   35.4109   54.7157 C   0  0  0  0  0  0  0  0  0  0  0  0
   33.0041   34.3280   54.2153 O   0  0  0  0  0  0  0  0  0  0  0  0
   32.9328   35.6704   56.0060 O   0  0  0  0  0  0  0  0  0  0  0  0
   32.2281   36.0722   58.6992 C   0  0  0  0  0  0  0  0  0  0  0  0
   31.8892   36.2847   60.0173 C   0  0  0  0  0  0  0  0  0  0  0  0
   29.6505   36.6038   63.2344 H   0  0  0  0  0  0  0  0  0  0  0  0
   28.5274   37.8115   62.5647 H   0  0  0  0  0  0  0  0  0  0  0  0
   29.3067   36.6275   61.4881 H   0  0  0  0  0  0  0  0  0  0  0  0
   32.9390   39.4873   60.3493 H   0  0  0  0  0  0  0  0  0  0  0  0
   33.5491   39.1225   57.9968 H   0  0  0  0  0  0  0  0  0  0  0  0
   34.9190   39.7035   54.3750 H   0  0  0  0  0  0  0  0  0  0  0  0
   35.1208   37.2362   50.8967 H   0  0  0  0  0  0  0  0  0  0  0  0
   34.0570   35.3812   52.1064 H   0  0  0  0  0  0  0  0  0  0  0  0
   32.0291   35.1166   58.2369 H   0  0  0  0  0  0  0  0  0  0  0  0
   31.4244   35.4948   60.5886 H   0  0  0  0  0  0  0  0  0  0  0  0
  1  2  1  0  0  0  0
  1 23  1  0  0  0  0
  1 24  1  0  0  0  0
  1 25  1  0  0  0  0
  2  3  2  0  0  0  0
  2  4  1  0  0  0  0
  4  5  1  0  0  0  0
  5 22  2  0  0  0  0
  5  6  1  0  0  0  0
  6  7  2  0  0  0  0
  6 26  1  0  0  0  0
  7  8  1  0  0  0  0
  7 27  1  0  0  0  0
  8  9  1  0  0  0  0
  8 21  2  0  0  0  0
  9 20  1  0  0  0  0
  9 10  2  0  0  0  0
 10 11  1  0  0  0  0
 11 17  2  0  0  0  0
 11 12  1  0  0  0  0
 12 13  2  0  0  0  0
 12 28  1  0  0  0  0
 13 14  1  0  0  0  0
 13 15  1  0  0  0  0
 15 16  2  0  0  0  0
 15 29  1  0  0  0  0
 16 17  1  0  0  0  0
 16 30  1  0  0  0  0
 17 18  1  0  0  0  0
 18 19  2  0  0  0  0
 18 20  1  0  0  0  0
 21 22  1  0  0  0  0
 21 31  1  0  0  0  0
 22 32  1  0  0  0  0
M  END
$$$$
