ZINC000000022166      none
 OpenBabel11202420153D

 46 48  0  0  0  0  0  0  0  0999 V2000
   28.7092   40.1314   65.7597 C   0  0  0  0  0  0  0  0  0  0  0  0
   29.0869   39.2282   66.9355 C   0  0  0  0  0  0  0  0  0  0  0  0
   27.8199   38.8079   67.6832 C   0  0  0  0  0  0  0  0  0  0  0  0
   30.0117   39.9898   67.8871 C   0  0  0  0  0  0  0  0  0  0  0  0
   29.7958   38.0024   66.4198 C   0  0  0  0  0  0  0  0  0  0  0  0
   30.2313   37.0436   67.3033 C   0  0  0  0  0  0  0  0  0  0  0  0
   30.8971   35.9052   66.8341 C   0  0  0  0  0  0  0  0  0  0  0  0
   31.3717   34.8828   67.7770 C   0  0  0  0  0  0  0  0  0  0  0  0
   30.5669   33.8527   68.1179 C   0  0  0  0  0  0  0  0  0  0  0  0
   29.2044   33.5227   67.5298 C   0  0  0  0  0  0  0  0  0  0  0  0
   28.9853   32.0708   68.0201 C   0  0  0  0  0  0  0  0  0  0  0  0
   29.7862   32.0036   69.2123 O   0  0  0  0  0  0  0  0  0  0  0  0
   30.8188   32.8608   69.1032 C   0  0  0  0  0  0  0  0  0  0  0  0
   31.8380   32.7939   69.7639 O   0  0  0  0  0  0  0  0  0  0  0  0
   31.1025   35.7467   65.4572 C   0  0  0  0  0  0  0  0  0  0  0  0
   30.6596   36.7095   64.5857 C   0  0  0  0  0  0  0  0  0  0  0  0
   30.0060   37.8490   65.0484 C   0  0  0  0  0  0  0  0  0  0  0  0
   29.6694   38.6734   64.0201 O   0  0  0  0  0  0  0  0  0  0  0  0
   29.6876   37.9307   62.7897 C   0  0  0  0  0  0  0  0  0  0  0  0
   30.7256   36.8196   63.0743 C   0  0  0  0  0  0  0  0  0  0  0  0
   30.3137   35.5035   62.4116 C   0  0  0  0  0  0  0  0  0  0  0  0
   32.1221   37.2455   62.6168 C   0  0  0  0  0  0  0  0  0  0  0  0
   28.0503   39.5888   65.0816 H   0  0  0  0  0  0  0  0  0  0  0  0
   28.1965   41.0180   66.1327 H   0  0  0  0  0  0  0  0  0  0  0  0
   29.6119   40.4308   65.2269 H   0  0  0  0  0  0  0  0  0  0  0  0
   28.0889   38.1645   68.5208 H   0  0  0  0  0  0  0  0  0  0  0  0
   27.3071   39.6946   68.0562 H   0  0  0  0  0  0  0  0  0  0  0  0
   27.1610   38.2654   67.0053 H   0  0  0  0  0  0  0  0  0  0  0  0
   30.9143   40.2892   67.3545 H   0  0  0  0  0  0  0  0  0  0  0  0
   29.4989   40.8764   68.2600 H   0  0  0  0  0  0  0  0  0  0  0  0
   30.2807   39.3464   68.7247 H   0  0  0  0  0  0  0  0  0  0  0  0
   30.0632   37.1711   68.3625 H   0  0  0  0  0  0  0  0  0  0  0  0
   32.3640   34.9549   68.1975 H   0  0  0  0  0  0  0  0  0  0  0  0
   28.4380   34.1890   67.9258 H   0  0  0  0  0  0  0  0  0  0  0  0
   29.2300   33.5651   66.4409 H   0  0  0  0  0  0  0  0  0  0  0  0
   29.3376   31.3534   67.2789 H   0  0  0  0  0  0  0  0  0  0  0  0
   27.9345   31.8974   68.2522 H   0  0  0  0  0  0  0  0  0  0  0  0
   31.6123   34.8711   65.0833 H   0  0  0  0  0  0  0  0  0  0  0  0
   28.7076   37.4999   62.5843 H   0  0  0  0  0  0  0  0  0  0  0  0
   30.0112   38.5622   61.9624 H   0  0  0  0  0  0  0  0  0  0  0  0
   30.2662   35.6400   61.3313 H   0  0  0  0  0  0  0  0  0  0  0  0
   31.0468   34.7323   62.6485 H   0  0  0  0  0  0  0  0  0  0  0  0
   29.3347   35.2004   62.7830 H   0  0  0  0  0  0  0  0  0  0  0  0
   32.4094   38.1622   63.1318 H   0  0  0  0  0  0  0  0  0  0  0  0
   32.8376   36.4574   62.8516 H   0  0  0  0  0  0  0  0  0  0  0  0
   32.1143   37.4204   61.5409 H   0  0  0  0  0  0  0  0  0  0  0  0
  1  2  1  0  0  0  0
  1 23  1  0  0  0  0
  1 24  1  0  0  0  0
  1 25  1  0  0  0  0
  2  3  1  0  0  0  0
  2  4  1  0  0  0  0
  2  5  1  0  0  0  0
  3 26  1  0  0  0  0
  3 27  1  0  0  0  0
  3 28  1  0  0  0  0
  4 29  1  0  0  0  0
  4 30  1  0  0  0  0
  4 31  1  0  0  0  0
  5 17  2  0  0  0  0
  5  6  1  0  0  0  0
  6  7  2  0  0  0  0
  6 32  1  0  0  0  0
  7  8  1  0  0  0  0
  7 15  1  0  0  0  0
  8  9  2  0  0  0  0
  8 33  1  0  0  0  0
  9 13  1  0  0  0  0
  9 10  1  0  0  0  0
 10 11  1  0  0  0  0
 10 34  1  0  0  0  0
 10 35  1  0  0  0  0
 11 12  1  0  0  0  0
 11 36  1  0  0  0  0
 11 37  1  0  0  0  0
 12 13  1  0  0  0  0
 13 14  2  0  0  0  0
 15 16  2  0  0  0  0
 15 38  1  0  0  0  0
 16 20  1  0  0  0  0
 16 17  1  0  0  0  0
 17 18  1  0  0  0  0
 18 19  1  0  0  0  0
 19 20  1  0  0  0  0
 19 39  1  0  0  0  0
 19 40  1  0  0  0  0
 20 21  1  0  0  0  0
 20 22  1  0  0  0  0
 21 41  1  0  0  0  0
 21 42  1  0  0  0  0
 21 43  1  0  0  0  0
 22 44  1  0  0  0  0
 22 45  1  0  0  0  0
 22 46  1  0  0  0  0
M  END
$$$$
