ZINC000000002252      none
 OpenBabel11202420153D

 43 45  0  0  0  0  0  0  0  0999 V2000
   32.6889   36.8827   65.6492 C   0  0  0  0  0  0  0  0  0  0  0  0
   31.7485   36.4134   64.5373 C   0  0  0  0  0  0  0  0  0  0  0  0
   30.7339   35.3667   65.0016 C   0  0  0  0  0  0  0  0  0  0  0  0
   31.1412   37.5518   63.7056 C   0  0  0  0  0  0  0  0  0  0  0  0
   31.3419   36.7133   62.5093 N   0  0  0  0  0  0  0  0  0  0  0  0
   31.8345   37.5148   61.3811 C   0  0  0  0  0  0  0  0  0  0  0  0
   32.0302   36.6123   60.1611 C   0  0  0  0  0  0  0  0  0  0  0  0
   32.5215   37.4117   59.0361 N   0  0  0  0  0  0  0  0  0  0  0  0
   32.7869   38.8577   59.0698 C   0  0  0  0  0  0  0  0  0  0  0  0
   33.2773   39.1765   57.6441 C   0  0  0  0  0  0  0  0  0  0  0  0
   33.2361   37.8762   56.9584 N   0  0  0  0  0  0  0  0  0  0  0  0
   33.5951   37.6510   55.6247 C   0  0  0  0  0  0  0  0  0  0  0  0
   34.5613   38.4453   55.0206 C   0  0  0  0  0  0  0  0  0  0  0  0
   34.9184   38.2173   53.7063 C   0  0  0  0  0  0  0  0  0  0  0  0
   34.3110   37.2030   52.9890 C   0  0  0  0  0  0  0  0  0  0  0  0
   33.3440   36.4132   53.5856 C   0  0  0  0  0  0  0  0  0  0  0  0
   32.5841   35.1408   52.6816 Cl  0  0  0  0  0  0  0  0  0  0  0  0
   32.9823   36.6372   54.9010 C   0  0  0  0  0  0  0  0  0  0  0  0
   32.7949   36.9425   57.8115 C   0  0  0  0  0  0  0  0  0  0  0  0
   32.6587   35.7743   57.5034 O   0  0  0  0  0  0  0  0  0  0  0  0
   32.4570   36.0619   63.2216 C   0  0  0  0  0  0  0  0  0  0  0  0
   32.1434   37.5269   66.3387 H   0  0  0  0  0  0  0  0  0  0  0  0
   33.0744   36.0173   66.1883 H   0  0  0  0  0  0  0  0  0  0  0  0
   33.5190   37.4381   65.2126 H   0  0  0  0  0  0  0  0  0  0  0  0
   30.2593   34.9103   64.1330 H   0  0  0  0  0  0  0  0  0  0  0  0
   31.2444   34.5982   65.5822 H   0  0  0  0  0  0  0  0  0  0  0  0
   29.9752   35.8455   65.6206 H   0  0  0  0  0  0  0  0  0  0  0  0
   31.7446   38.4596   63.7058 H   0  0  0  0  0  0  0  0  0  0  0  0
   30.0920   37.7425   63.9313 H   0  0  0  0  0  0  0  0  0  0  0  0
   32.7861   37.9739   61.6497 H   0  0  0  0  0  0  0  0  0  0  0  0
   31.1095   38.2934   61.1445 H   0  0  0  0  0  0  0  0  0  0  0  0
   31.0787   36.1532   59.8926 H   0  0  0  0  0  0  0  0  0  0  0  0
   32.7553   35.8337   60.3977 H   0  0  0  0  0  0  0  0  0  0  0  0
   33.5617   39.0875   59.8012 H   0  0  0  0  0  0  0  0  0  0  0  0
   31.8735   39.4092   59.2925 H   0  0  0  0  0  0  0  0  0  0  0  0
   34.2955   39.5646   57.6675 H   0  0  0  0  0  0  0  0  0  0  0  0
   32.6073   39.8862   57.1588 H   0  0  0  0  0  0  0  0  0  0  0  0
   35.0362   39.2379   55.5798 H   0  0  0  0  0  0  0  0  0  0  0  0
   35.6731   38.8317   53.2379 H   0  0  0  0  0  0  0  0  0  0  0  0
   34.5918   37.0268   51.9610 H   0  0  0  0  0  0  0  0  0  0  0  0
   32.2271   36.0211   55.3665 H   0  0  0  0  0  0  0  0  0  0  0  0
   32.5229   34.9897   63.0370 H   0  0  0  0  0  0  0  0  0  0  0  0
   33.4116   36.5719   63.0928 H   0  0  0  0  0  0  0  0  0  0  0  0
  1  2  1  0  0  0  0
  1 22  1  0  0  0  0
  1 23  1  0  0  0  0
  1 24  1  0  0  0  0
  2 21  1  0  0  0  0
  2  3  1  0  0  0  0
  2  4  1  0  0  0  0
  3 25  1  0  0  0  0
  3 26  1  0  0  0  0
  3 27  1  0  0  0  0
  4  5  1  0  0  0  0
  4 28  1  0  0  0  0
  4 29  1  0  0  0  0
  5  6  1  0  0  0  0
  5 21  1  0  0  0  0
  6  7  1  0  0  0  0
  6 30  1  0  0  0  0
  6 31  1  0  0  0  0
  7  8  1  0  0  0  0
  7 32  1  0  0  0  0
  7 33  1  0  0  0  0
  8 19  1  0  0  0  0
  8  9  1  0  0  0  0
  9 10  1  0  0  0  0
  9 34  1  0  0  0  0
  9 35  1  0  0  0  0
 10 11  1  0  0  0  0
 10 36  1  0  0  0  0
 10 37  1  0  0  0  0
 11 12  1  0  0  0  0
 11 19  1  0  0  0  0
 12 18  2  0  0  0  0
 12 13  1  0  0  0  0
 13 14  2  0  0  0  0
 13 38  1  0  0  0  0
 14 15  1  0  0  0  0
 14 39  1  0  0  0  0
 15 16  2  0  0  0  0
 15 40  1  0  0  0  0
 16 17  1  0  0  0  0
 16 18  1  0  0  0  0
 18 41  1  0  0  0  0
 19 20  2  0  0  0  0
 21 42  1  0  0  0  0
 21 43  1  0  0  0  0
M  END
$$$$
