ZINC000000021789      none
 OpenBabel11202420153D

 21 21  0  0  0  0  0  0  0  0999 V2000
   35.0005   38.3623   53.1162 C   0  0  0  0  0  0  0  0  0  0  0  0
   34.5564   38.6851   54.4605 O   0  0  0  0  0  0  0  0  0  0  0  0
   34.1040   37.6656   55.2166 C   0  0  0  0  0  0  0  0  0  0  0  0
   34.0812   36.5378   54.7650 O   0  0  0  0  0  0  0  0  0  0  0  0
   33.6365   37.9187   56.5923 C   0  0  0  0  0  0  0  0  0  0  0  0
   33.6676   39.2146   57.1149 C   0  0  0  0  0  0  0  0  0  0  0  0
   33.2239   39.4497   58.4025 C   0  0  0  0  0  0  0  0  0  0  0  0
   33.2491   40.7113   58.9101 O   0  0  0  0  0  0  0  0  0  0  0  0
   32.7566   38.3953   59.1828 C   0  0  0  0  0  0  0  0  0  0  0  0
   32.3259   38.6285   60.4503 O   0  0  0  0  0  0  0  0  0  0  0  0
   32.7296   37.1024   58.6664 C   0  0  0  0  0  0  0  0  0  0  0  0
   32.2725   36.0748   59.4312 O   0  0  0  0  0  0  0  0  0  0  0  0
   33.1670   36.8623   57.3776 C   0  0  0  0  0  0  0  0  0  0  0  0
   35.8222   37.6479   53.1667 H   0  0  0  0  0  0  0  0  0  0  0  0
   34.1738   37.9261   52.5555 H   0  0  0  0  0  0  0  0  0  0  0  0
   35.3387   39.2705   52.6173 H   0  0  0  0  0  0  0  0  0  0  0  0
   34.0341   40.0320   56.5117 H   0  0  0  0  0  0  0  0  0  0  0  0
   32.9196   40.7771   59.8168 H   0  0  0  0  0  0  0  0  0  0  0  0
   32.0204   37.8366   60.9138 H   0  0  0  0  0  0  0  0  0  0  0  0
   32.2916   35.2156   58.9878 H   0  0  0  0  0  0  0  0  0  0  0  0
   33.1457   35.8593   56.9776 H   0  0  0  0  0  0  0  0  0  0  0  0
  1  2  1  0  0  0  0
  1 14  1  0  0  0  0
  1 15  1  0  0  0  0
  1 16  1  0  0  0  0
  2  3  1  0  0  0  0
  3  4  2  0  0  0  0
  3  5  1  0  0  0  0
  5 13  2  0  0  0  0
  5  6  1  0  0  0  0
  6  7  2  0  0  0  0
  6 17  1  0  0  0  0
  7  8  1  0  0  0  0
  7  9  1  0  0  0  0
  8 18  1  0  0  0  0
  9 10  1  0  0  0  0
  9 11  2  0  0  0  0
 10 19  1  0  0  0  0
 11 12  1  0  0  0  0
 11 13  1  0  0  0  0
 12 20  1  0  0  0  0
 13 21  1  0  0  0  0
M  END
$$$$
