ZINC000000037713      none
 OpenBabel11202420153D

 36 37  0  0  0  0  0  0  0  0999 V2000
   31.6541   41.2919   66.8786 C   0  0  0  0  0  0  0  0  0  0  0  0
   30.9902   40.4837   65.9048 O   0  0  0  0  0  0  0  0  0  0  0  0
   31.6057   39.3287   65.5384 C   0  0  0  0  0  0  0  0  0  0  0  0
   32.8244   38.9813   66.1049 C   0  0  0  0  0  0  0  0  0  0  0  0
   33.4513   37.8075   65.7333 C   0  0  0  0  0  0  0  0  0  0  0  0
   32.8679   36.9763   64.7965 C   0  0  0  0  0  0  0  0  0  0  0  0
   31.6487   37.3188   64.2263 C   0  0  0  0  0  0  0  0  0  0  0  0
   31.0574   36.4768   63.2781 N   0  0  0  0  0  0  0  0  0  0  0  0
   31.8299   35.7154   62.4782 C   0  0  0  0  0  0  0  0  0  0  0  0
   33.0376   35.7602   62.5801 O   0  0  0  0  0  0  0  0  0  0  0  0
   31.1931   34.8085   61.4569 C   0  0  0  0  0  0  0  0  0  0  0  0
   30.3612   35.6434   60.4814 C   0  0  0  0  0  0  0  0  0  0  0  0
   31.2533   36.6375   59.7836 C   0  0  0  0  0  0  0  0  0  0  0  0
   31.4448   37.8944   60.3261 C   0  0  0  0  0  0  0  0  0  0  0  0
   32.2669   38.8044   59.6884 C   0  0  0  0  0  0  0  0  0  0  0  0
   32.8892   38.4613   58.5026 C   0  0  0  0  0  0  0  0  0  0  0  0
   32.6935   37.2063   57.9574 C   0  0  0  0  0  0  0  0  0  0  0  0
   31.8755   36.2943   58.5978 C   0  0  0  0  0  0  0  0  0  0  0  0
   31.0172   38.4975   64.5987 C   0  0  0  0  0  0  0  0  0  0  0  0
   31.0574   42.1815   67.0803 H   0  0  0  0  0  0  0  0  0  0  0  0
   31.7796   40.7221   67.7992 H   0  0  0  0  0  0  0  0  0  0  0  0
   32.6318   41.5888   66.4989 H   0  0  0  0  0  0  0  0  0  0  0  0
   33.2829   39.6290   66.8375 H   0  0  0  0  0  0  0  0  0  0  0  0
   34.3992   37.5392   66.1759 H   0  0  0  0  0  0  0  0  0  0  0  0
   33.3602   36.0594   64.5074 H   0  0  0  0  0  0  0  0  0  0  0  0
   30.0915   36.4409   63.1966 H   0  0  0  0  0  0  0  0  0  0  0  0
   31.9705   34.2764   60.9084 H   0  0  0  0  0  0  0  0  0  0  0  0
   30.5478   34.0894   61.9617 H   0  0  0  0  0  0  0  0  0  0  0  0
   29.9005   34.9874   59.7428 H   0  0  0  0  0  0  0  0  0  0  0  0
   29.5837   36.1753   61.0299 H   0  0  0  0  0  0  0  0  0  0  0  0
   30.9551   38.1640   61.2502 H   0  0  0  0  0  0  0  0  0  0  0  0
   32.4196   39.7852   60.1143 H   0  0  0  0  0  0  0  0  0  0  0  0
   33.5280   39.1740   58.0021 H   0  0  0  0  0  0  0  0  0  0  0  0
   33.1794   36.9383   57.0308 H   0  0  0  0  0  0  0  0  0  0  0  0
   31.7224   35.3138   58.1716 H   0  0  0  0  0  0  0  0  0  0  0  0
   30.0713   38.7685   64.1535 H   0  0  0  0  0  0  0  0  0  0  0  0
  1  2  1  0  0  0  0
  1 20  1  0  0  0  0
  1 21  1  0  0  0  0
  1 22  1  0  0  0  0
  2  3  1  0  0  0  0
  3 19  2  0  0  0  0
  3  4  1  0  0  0  0
  4  5  2  0  0  0  0
  4 23  1  0  0  0  0
  5  6  1  0  0  0  0
  5 24  1  0  0  0  0
  6  7  2  0  0  0  0
  6 25  1  0  0  0  0
  7  8  1  0  0  0  0
  7 19  1  0  0  0  0
  8  9  1  0  0  0  0
  8 26  1  0  0  0  0
  9 10  2  0  0  0  0
  9 11  1  0  0  0  0
 11 12  1  0  0  0  0
 11 27  1  0  0  0  0
 11 28  1  0  0  0  0
 12 13  1  0  0  0  0
 12 29  1  0  0  0  0
 12 30  1  0  0  0  0
 13 18  2  0  0  0  0
 13 14  1  0  0  0  0
 14 15  2  0  0  0  0
 14 31  1  0  0  0  0
 15 16  1  0  0  0  0
 15 32  1  0  0  0  0
 16 17  2  0  0  0  0
 16 33  1  0  0  0  0
 17 18  1  0  0  0  0
 17 34  1  0  0  0  0
 18 35  1  0  0  0  0
 19 36  1  0  0  0  0
M  END
$$$$
