ZINC000000001568      none
 OpenBabel11202420153D

 44 47  0  0  0  0  0  0  0  0999 V2000
   36.3568   40.0625   50.8907 C   0  0  0  0  0  0  0  0  0  0  0  0
   35.6440   40.8873   51.8158 O   0  0  0  0  0  0  0  0  0  0  0  0
   35.1722   40.2871   52.9397 C   0  0  0  0  0  0  0  0  0  0  0  0
   34.4711   41.0309   53.8793 C   0  0  0  0  0  0  0  0  0  0  0  0
   33.9906   40.4264   55.0208 C   0  0  0  0  0  0  0  0  0  0  0  0
   34.2100   39.0630   55.2321 C   0  0  0  0  0  0  0  0  0  0  0  0
   33.6979   38.4113   56.4534 C   0  0  0  0  0  0  0  0  0  0  0  0
   33.5297   39.0239   57.6724 N   0  0  0  0  0  0  0  0  0  0  0  0
   33.7314   39.9541   57.8590 H   0  0  0  0  0  0  0  0  0  0  0  0
   33.0330   38.1239   58.5913 C   0  0  0  0  0  0  0  0  0  0  0  0
   32.6934   38.2332   59.9367 C   0  0  0  0  0  0  0  0  0  0  0  0
   32.1940   37.1389   60.6086 C   0  0  0  0  0  0  0  0  0  0  0  0
   32.0387   35.9210   59.9611 C   0  0  0  0  0  0  0  0  0  0  0  0
   32.3704   35.7904   58.6417 C   0  0  0  0  0  0  0  0  0  0  0  0
   32.8694   36.8888   57.9400 C   0  0  0  0  0  0  0  0  0  0  0  0
   33.3119   37.0912   56.5528 C   0  0  0  0  0  0  0  0  0  0  0  0
   33.3332   36.0785   55.4735 C   0  0  0  0  0  0  0  0  0  0  0  0
   34.1009   34.9219   55.6145 C   0  0  0  0  0  0  0  0  0  0  0  0
   34.1178   33.9806   54.6069 C   0  0  0  0  0  0  0  0  0  0  0  0
   33.3726   34.1827   53.4531 C   0  0  0  0  0  0  0  0  0  0  0  0
   33.3965   33.2556   52.4596 O   0  0  0  0  0  0  0  0  0  0  0  0
   34.2094   32.0993   52.6707 C   0  0  0  0  0  0  0  0  0  0  0  0
   32.6076   35.3324   53.3091 C   0  0  0  0  0  0  0  0  0  0  0  0
   32.5852   36.2779   54.3124 C   0  0  0  0  0  0  0  0  0  0  0  0
   34.9207   38.3193   54.2867 C   0  0  0  0  0  0  0  0  0  0  0  0
   35.3925   38.9307   53.1452 C   0  0  0  0  0  0  0  0  0  0  0  0
   37.2300   39.6348   51.3830 H   0  0  0  0  0  0  0  0  0  0  0  0
   35.7060   39.2600   50.5432 H   0  0  0  0  0  0  0  0  0  0  0  0
   36.6774   40.6642   50.0403 H   0  0  0  0  0  0  0  0  0  0  0  0
   34.3021   42.0849   53.7153 H   0  0  0  0  0  0  0  0  0  0  0  0
   33.4449   41.0059   55.7509 H   0  0  0  0  0  0  0  0  0  0  0  0
   32.8090   39.1768   60.4493 H   0  0  0  0  0  0  0  0  0  0  0  0
   31.9275   37.2277   61.6515 H   0  0  0  0  0  0  0  0  0  0  0  0
   31.6526   35.0707   60.5036 H   0  0  0  0  0  0  0  0  0  0  0  0
   32.2471   34.8401   58.1438 H   0  0  0  0  0  0  0  0  0  0  0  0
   34.6809   34.7638   56.5118 H   0  0  0  0  0  0  0  0  0  0  0  0
   34.7117   33.0851   54.7152 H   0  0  0  0  0  0  0  0  0  0  0  0
   34.1385   31.4422   51.8040 H   0  0  0  0  0  0  0  0  0  0  0  0
   35.2462   32.4049   52.8112 H   0  0  0  0  0  0  0  0  0  0  0  0
   33.8634   31.5690   53.5580 H   0  0  0  0  0  0  0  0  0  0  0  0
   32.0296   35.4863   52.4099 H   0  0  0  0  0  0  0  0  0  0  0  0
   31.9895   37.1718   54.1998 H   0  0  0  0  0  0  0  0  0  0  0  0
   35.0962   37.2659   54.4480 H   0  0  0  0  0  0  0  0  0  0  0  0
   35.9380   38.3557   52.4115 H   0  0  0  0  0  0  0  0  0  0  0  0
  1  2  1  0  0  0  0
  1 27  1  0  0  0  0
  1 28  1  0  0  0  0
  1 29  1  0  0  0  0
  2  3  1  0  0  0  0
  3 26  2  0  0  0  0
  3  4  1  0  0  0  0
  4  5  2  0  0  0  0
  4 30  1  0  0  0  0
  5  6  1  0  0  0  0
  5 31  1  0  0  0  0
  6  7  1  0  0  0  0
  6 25  2  0  0  0  0
  7 16  2  0  0  0  0
  7  8  1  0  0  0  0
  8  9  1  0  0  0  0
  8 10  1  0  0  0  0
 10 15  2  0  0  0  0
 10 11  1  0  0  0  0
 11 12  2  0  0  0  0
 11 32  1  0  0  0  0
 12 13  1  0  0  0  0
 12 33  1  0  0  0  0
 13 14  2  0  0  0  0
 13 34  1  0  0  0  0
 14 15  1  0  0  0  0
 14 35  1  0  0  0  0
 15 16  1  0  0  0  0
 16 17  1  0  0  0  0
 17 24  2  0  0  0  0
 17 18  1  0  0  0  0
 18 19  2  0  0  0  0
 18 36  1  0  0  0  0
 19 20  1  0  0  0  0
 19 37  1  0  0  0  0
 20 21  1  0  0  0  0
 20 23  2  0  0  0  0
 21 22  1  0  0  0  0
 22 38  1  0  0  0  0
 22 39  1  0  0  0  0
 22 40  1  0  0  0  0
 23 24  1  0  0  0  0
 23 41  1  0  0  0  0
 24 42  1  0  0  0  0
 25 26  1  0  0  0  0
 25 43  1  0  0  0  0
 26 44  1  0  0  0  0
M  END
$$$$
