ZINC000000030410      none
 OpenBabel11202420163D

 43 43  0  0  0  0  0  0  0  0999 V2000
   30.8625   34.5640   63.2604 C   0  0  0  0  0  0  0  0  0  0  0  0
   31.3120   35.6275   62.3798 O   0  0  0  0  0  0  0  0  0  0  0  0
   31.6671   35.2764   61.1288 C   0  0  0  0  0  0  0  0  0  0  0  0
   31.6029   34.1140   60.7830 O   0  0  0  0  0  0  0  0  0  0  0  0
   32.1352   36.3070   60.1760 C   0  0  0  0  0  0  0  0  0  0  0  0
   32.2031   37.6453   60.5733 C   0  0  0  0  0  0  0  0  0  0  0  0
   32.6374   38.6081   59.6910 C   0  0  0  0  0  0  0  0  0  0  0  0
   33.0122   38.2509   58.3934 C   0  0  0  0  0  0  0  0  0  0  0  0
   33.4775   39.2841   57.4474 C   0  0  0  0  0  0  0  0  0  0  0  0
   33.5347   40.4460   57.7970 O   0  0  0  0  0  0  0  0  0  0  0  0
   33.8388   38.9383   56.1964 O   0  0  0  0  0  0  0  0  0  0  0  0
   34.2862   40.0064   55.3205 C   0  0  0  0  0  0  0  0  0  0  0  0
   32.9455   36.9090   57.9909 C   0  0  0  0  0  0  0  0  0  0  0  0
   33.3179   36.5481   56.6981 N   0  0  0  0  0  0  0  0  0  0  0  0
   33.8346   35.3259   56.4620 C   0  0  0  0  0  0  0  0  0  0  0  0
   33.9756   34.5404   57.3752 O   0  0  0  0  0  0  0  0  0  0  0  0
   34.2374   34.9355   55.0633 C   0  0  0  0  0  0  0  0  0  0  0  0
   33.4332   33.7102   54.6242 C   0  0  0  0  0  0  0  0  0  0  0  0
   32.0671   33.7233   55.3130 C   0  0  0  0  0  0  0  0  0  0  0  0
   33.2398   33.7440   53.1069 C   0  0  0  0  0  0  0  0  0  0  0  0
   34.1886   32.4379   55.0138 C   0  0  0  0  0  0  0  0  0  0  0  0
   32.5020   35.9427   58.8825 C   0  0  0  0  0  0  0  0  0  0  0  0
   31.6583   33.8284   63.3772 H   0  0  0  0  0  0  0  0  0  0  0  0
   30.6082   34.9819   64.2344 H   0  0  0  0  0  0  0  0  0  0  0  0
   29.9837   34.0835   62.8305 H   0  0  0  0  0  0  0  0  0  0  0  0
   31.9137   37.9247   61.5757 H   0  0  0  0  0  0  0  0  0  0  0  0
   32.6880   39.6411   60.0020 H   0  0  0  0  0  0  0  0  0  0  0  0
   35.1610   40.4901   55.7549 H   0  0  0  0  0  0  0  0  0  0  0  0
   34.5462   39.5926   54.3462 H   0  0  0  0  0  0  0  0  0  0  0  0
   33.4873   40.7385   55.2028 H   0  0  0  0  0  0  0  0  0  0  0  0
   33.2051   37.1763   55.9677 H   0  0  0  0  0  0  0  0  0  0  0  0
   35.3010   34.6978   55.0446 H   0  0  0  0  0  0  0  0  0  0  0  0
   34.0382   35.7636   54.3833 H   0  0  0  0  0  0  0  0  0  0  0  0
   31.5289   34.6297   55.0354 H   0  0  0  0  0  0  0  0  0  0  0  0
   31.4941   32.8504   55.0002 H   0  0  0  0  0  0  0  0  0  0  0  0
   32.2049   33.6992   56.3939 H   0  0  0  0  0  0  0  0  0  0  0  0
   34.2130   33.7347   52.6162 H   0  0  0  0  0  0  0  0  0  0  0  0
   32.6668   32.8712   52.7941 H   0  0  0  0  0  0  0  0  0  0  0  0
   32.7016   34.6505   52.8293 H   0  0  0  0  0  0  0  0  0  0  0  0
   34.3264   32.4138   56.0948 H   0  0  0  0  0  0  0  0  0  0  0  0
   33.6156   31.5651   54.7010 H   0  0  0  0  0  0  0  0  0  0  0  0
   35.1619   32.4286   54.5232 H   0  0  0  0  0  0  0  0  0  0  0  0
   32.4449   34.9089   58.5752 H   0  0  0  0  0  0  0  0  0  0  0  0
  1  2  1  0  0  0  0
  1 23  1  0  0  0  0
  1 24  1  0  0  0  0
  1 25  1  0  0  0  0
  2  3  1  0  0  0  0
  3  4  2  0  0  0  0
  3  5  1  0  0  0  0
  5 22  2  0  0  0  0
  5  6  1  0  0  0  0
  6  7  2  0  0  0  0
  6 26  1  0  0  0  0
  7  8  1  0  0  0  0
  7 27  1  0  0  0  0
  8  9  1  0  0  0  0
  8 13  2  0  0  0  0
  9 10  2  0  0  0  0
  9 11  1  0  0  0  0
 11 12  1  0  0  0  0
 12 28  1  0  0  0  0
 12 29  1  0  0  0  0
 12 30  1  0  0  0  0
 13 14  1  0  0  0  0
 13 22  1  0  0  0  0
 14 15  1  0  0  0  0
 14 31  1  0  0  0  0
 15 16  2  0  0  0  0
 15 17  1  0  0  0  0
 17 18  1  0  0  0  0
 17 32  1  0  0  0  0
 17 33  1  0  0  0  0
 18 19  1  0  0  0  0
 18 20  1  0  0  0  0
 18 21  1  0  0  0  0
 19 34  1  0  0  0  0
 19 35  1  0  0  0  0
 19 36  1  0  0  0  0
 20 37  1  0  0  0  0
 20 38  1  0  0  0  0
 20 39  1  0  0  0  0
 21 40  1  0  0  0  0
 21 41  1  0  0  0  0
 21 42  1  0  0  0  0
 22 43  1  0  0  0  0
M  END
$$$$
