ZINC000000047392      none
 OpenBabel11202420153D

 32 34  0  0  1  0  0  0  0  0999 V2000
   34.8433   33.2737   55.4620 C   0  0  0  0  0  0  0  0  0  0  0  0
   34.2087   34.5312   55.9975 C   0  0  0  0  0  0  0  0  0  0  0  0
   33.6432   34.5370   57.2588 C   0  0  0  0  0  0  0  0  0  0  0  0
   33.0660   35.6921   57.7522 C   0  0  0  0  0  0  0  0  0  0  0  0
   33.0495   36.8400   56.9821 C   0  0  0  0  0  0  0  0  0  0  0  0
   32.4202   38.0993   57.5199 C   0  0  0  0  0  0  0  0  0  0  0  0
   31.8874   37.8422   58.9060 C   0  0  0  0  0  0  0  0  0  0  0  0
   32.5709   38.0009   60.0535 C   0  0  0  0  0  0  0  0  0  0  0  0
   31.6927   37.6521   61.1051 C   0  0  0  0  0  0  0  0  0  0  0  0
   30.5276   37.2930   60.5368 C   0  0  0  0  0  0  0  0  0  0  0  0
   29.2927   36.8371   61.2705 C   0  0  2  0  0  0  0  0  0  0  0  0
   28.8994   37.8256   62.2874 N   0  0  0  0  0  0  0  0  0  0  0  0
   28.9549   37.2768   63.3910 N   0  0  0  0  0  0  0  0  0  0  0  0
   29.3410   35.9962   63.3396 C   0  0  0  0  0  0  0  0  0  0  0  0
   29.5118   34.9726   64.7011 S   0  0  0  0  0  0  0  0  0  0  0  0
   29.5763   35.6244   62.0617 N   0  0  0  0  0  0  0  0  0  0  0  0
   30.6513   37.4102   59.2046 O   0  0  0  0  0  0  0  0  0  0  0  0
   33.6099   36.8326   55.7184 C   0  0  0  0  0  0  0  0  0  0  0  0
   34.1871   35.6775   55.2251 C   0  0  0  0  0  0  0  0  0  0  0  0
   34.0946   32.6868   54.9300 H   0  0  0  0  0  0  0  0  0  0  0  0
   35.6513   33.5368   54.7792 H   0  0  0  0  0  0  0  0  0  0  0  0
   35.2433   32.6878   56.2897 H   0  0  0  0  0  0  0  0  0  0  0  0
   33.6563   33.6403   57.8607 H   0  0  0  0  0  0  0  0  0  0  0  0
   32.6282   35.6979   58.7395 H   0  0  0  0  0  0  0  0  0  0  0  0
   33.1682   38.8911   57.5593 H   0  0  0  0  0  0  0  0  0  0  0  0
   31.6024   38.4042   56.8670 H   0  0  0  0  0  0  0  0  0  0  0  0
   33.5937   38.3334   60.1527 H   0  0  0  0  0  0  0  0  0  0  0  0
   31.9159   37.6666   62.1616 H   0  0  0  0  0  0  0  0  0  0  0  0
   28.4766   36.6568   60.5709 H   0  0  0  0  0  0  0  0  0  0  0  0
   29.8656   34.7570   61.7381 H   0  0  0  0  0  0  0  0  0  0  0  0
   33.5963   37.7292   55.1164 H   0  0  0  0  0  0  0  0  0  0  0  0
   34.6246   35.6716   54.2377 H   0  0  0  0  0  0  0  0  0  0  0  0
  1  2  1  0  0  0  0
  1 20  1  0  0  0  0
  1 21  1  0  0  0  0
  1 22  1  0  0  0  0
  2 19  2  0  0  0  0
  2  3  1  0  0  0  0
  3  4  2  0  0  0  0
  3 23  1  0  0  0  0
  4  5  1  0  0  0  0
  4 24  1  0  0  0  0
  5  6  1  0  0  0  0
  5 18  2  0  0  0  0
  6  7  1  0  0  0  0
  6 25  1  0  0  0  0
  6 26  1  0  0  0  0
  7 17  1  0  0  0  0
  7  8  2  0  0  0  0
  8  9  1  0  0  0  0
  8 27  1  0  0  0  0
  9 10  2  0  0  0  0
  9 28  1  0  0  0  0
 10 11  1  0  0  0  0
 10 17  1  0  0  0  0
 11 16  1  0  0  0  0
 11 12  1  0  0  0  0
 11 29  1  6  0  0  0
 12 13  2  0  0  0  0
 13 14  1  0  0  0  0
 14 15  2  0  0  0  0
 14 16  1  0  0  0  0
 16 30  1  0  0  0  0
 18 19  1  0  0  0  0
 18 31  1  0  0  0  0
 19 32  1  0  0  0  0
M  END
$$$$
