ZINC000000033202      none
 OpenBabel11202420153D

 27 29  0  0  0  0  0  0  0  0999 V2000
   32.4013   37.2821   60.9814 O   0  0  0  0  0  0  0  0  0  0  0  0
   32.2633   36.2155   60.4086 C   0  0  0  0  0  0  0  0  0  0  0  0
   31.9019   34.9854   61.1027 C   0  0  0  0  0  0  0  0  0  0  0  0
   31.6727   34.8373   62.4343 C   0  0  0  0  0  0  0  0  0  0  0  0
   31.6068   36.0187   63.3038 C   0  0  0  0  0  0  0  0  0  0  0  0
   32.7671   36.5075   63.9167 C   0  0  0  0  0  0  0  0  0  0  0  0
   32.6965   37.6170   64.7312 C   0  0  0  0  0  0  0  0  0  0  0  0
   31.4829   38.2491   64.9444 C   0  0  0  0  0  0  0  0  0  0  0  0
   30.3310   37.7740   64.3430 C   0  0  0  0  0  0  0  0  0  0  0  0
   30.3829   36.6639   63.5245 C   0  0  0  0  0  0  0  0  0  0  0  0
   28.9364   36.0685   62.7714 Cl  0  0  0  0  0  0  0  0  0  0  0  0
   31.8291   33.7243   59.8674 S   0  0  0  0  0  0  0  0  0  0  0  0
   32.2420   34.7570   58.4950 C   0  0  0  0  0  0  0  0  0  0  0  0
   32.3808   34.4597   57.1425 C   0  0  0  0  0  0  0  0  0  0  0  0
   32.7219   35.4489   56.2462 C   0  0  0  0  0  0  0  0  0  0  0  0
   32.9272   36.7456   56.6949 C   0  0  0  0  0  0  0  0  0  0  0  0
   32.7949   37.0554   58.0240 C   0  0  0  0  0  0  0  0  0  0  0  0
   32.4455   36.0596   58.9645 C   0  0  0  0  0  0  0  0  0  0  0  0
   31.5391   33.8507   62.8527 H   0  0  0  0  0  0  0  0  0  0  0  0
   33.7147   36.0166   63.7516 H   0  0  0  0  0  0  0  0  0  0  0  0
   33.5914   37.9973   65.2012 H   0  0  0  0  0  0  0  0  0  0  0  0
   31.4352   39.1178   65.5843 H   0  0  0  0  0  0  0  0  0  0  0  0
   29.3887   38.2732   64.5146 H   0  0  0  0  0  0  0  0  0  0  0  0
   32.2211   33.4499   56.7945 H   0  0  0  0  0  0  0  0  0  0  0  0
   32.8293   35.2156   55.1972 H   0  0  0  0  0  0  0  0  0  0  0  0
   33.1940   37.5191   55.9899 H   0  0  0  0  0  0  0  0  0  0  0  0
   32.9586   38.0702   58.3554 H   0  0  0  0  0  0  0  0  0  0  0  0
  1  2  2  0  0  0  0
  2 18  1  0  0  0  0
  2  3  1  0  0  0  0
  3  4  2  0  0  0  0
  3 12  1  0  0  0  0
  4  5  1  0  0  0  0
  4 19  1  0  0  0  0
  5 10  2  0  0  0  0
  5  6  1  0  0  0  0
  6  7  2  0  0  0  0
  6 20  1  0  0  0  0
  7  8  1  0  0  0  0
  7 21  1  0  0  0  0
  8  9  2  0  0  0  0
  8 22  1  0  0  0  0
  9 10  1  0  0  0  0
  9 23  1  0  0  0  0
 10 11  1  0  0  0  0
 12 13  1  0  0  0  0
 13 18  2  0  0  0  0
 13 14  1  0  0  0  0
 14 15  2  0  0  0  0
 14 24  1  0  0  0  0
 15 16  1  0  0  0  0
 15 25  1  0  0  0  0
 16 17  2  0  0  0  0
 16 26  1  0  0  0  0
 17 18  1  0  0  0  0
 17 27  1  0  0  0  0
M  END
$$$$
