ZINC000000029755      none
 OpenBabel11202420163D

 24 24  0  0  0  0  0  0  0  0999 V2000
   32.9882   38.3613   65.7205 N   0  0  0  0  0  0  0  0  0  0  0  0
   32.1479   38.1049   65.0001 C   0  0  0  0  0  0  0  0  0  0  0  0
   31.0594   37.7728   64.0666 C   0  0  0  0  0  0  0  0  0  0  0  0
   31.6227   37.4611   62.7506 N   0  0  0  0  0  0  0  0  0  0  0  0
   32.5624   36.3470   62.6013 C   0  0  0  0  0  0  0  0  0  0  0  0
   31.9102   35.0957   63.0201 C   0  0  0  0  0  0  0  0  0  0  0  0
   31.4070   34.1298   63.3434 N   0  0  0  0  0  0  0  0  0  0  0  0
   31.2722   38.1956   61.6764 C   0  0  0  0  0  0  0  0  0  0  0  0
   30.4885   39.1168   61.7993 O   0  0  0  0  0  0  0  0  0  0  0  0
   31.8402   37.8811   60.3494 C   0  0  0  0  0  0  0  0  0  0  0  0
   32.5856   38.8406   59.6610 C   0  0  0  0  0  0  0  0  0  0  0  0
   33.1177   38.5401   58.4255 C   0  0  0  0  0  0  0  0  0  0  0  0
   32.9051   37.2915   57.8614 C   0  0  0  0  0  0  0  0  0  0  0  0
   33.4246   37.0039   56.6479 F   0  0  0  0  0  0  0  0  0  0  0  0
   32.1610   36.3370   58.5381 C   0  0  0  0  0  0  0  0  0  0  0  0
   31.6288   36.6252   59.7764 C   0  0  0  0  0  0  0  0  0  0  0  0
   30.3829   38.6230   63.9800 H   0  0  0  0  0  0  0  0  0  0  0  0
   30.5108   36.9085   64.4410 H   0  0  0  0  0  0  0  0  0  0  0  0
   32.8673   36.2663   61.5580 H   0  0  0  0  0  0  0  0  0  0  0  0
   33.4394   36.5257   63.2234 H   0  0  0  0  0  0  0  0  0  0  0  0
   32.7480   39.8150   60.0975 H   0  0  0  0  0  0  0  0  0  0  0  0
   33.6978   39.2800   57.8941 H   0  0  0  0  0  0  0  0  0  0  0  0
   31.9979   35.3663   58.0938 H   0  0  0  0  0  0  0  0  0  0  0  0
   31.0489   35.8812   60.3024 H   0  0  0  0  0  0  0  0  0  0  0  0
  1  2  3  0  0  0  0
  2  3  1  0  0  0  0
  3  4  1  0  0  0  0
  3 17  1  0  0  0  0
  3 18  1  0  0  0  0
  4  5  1  0  0  0  0
  4  8  1  0  0  0  0
  5  6  1  0  0  0  0
  5 19  1  0  0  0  0
  5 20  1  0  0  0  0
  6  7  3  0  0  0  0
  8  9  2  0  0  0  0
  8 10  1  0  0  0  0
 10 16  2  0  0  0  0
 10 11  1  0  0  0  0
 11 12  2  0  0  0  0
 11 21  1  0  0  0  0
 12 13  1  0  0  0  0
 12 22  1  0  0  0  0
 13 14  1  0  0  0  0
 13 15  2  0  0  0  0
 15 16  1  0  0  0  0
 15 23  1  0  0  0  0
 16 24  1  0  0  0  0
M  END
$$$$
