ZINC000000002225      none
 OpenBabel11202420153D

 45 46  0  0  0  0  0  0  0  0999 V2000
   31.4742   33.5860   59.2006 C   0  0  0  0  0  0  0  0  0  0  0  0
   32.1842   34.5786   58.4572 O   0  0  0  0  0  0  0  0  0  0  0  0
   32.1959   35.8399   58.9656 C   0  0  0  0  0  0  0  0  0  0  0  0
   31.5389   36.1129   60.1508 C   0  0  0  0  0  0  0  0  0  0  0  0
   31.5512   37.4088   60.6725 C   0  0  0  0  0  0  0  0  0  0  0  0
   30.8504   37.7030   61.9378 C   0  0  0  0  0  0  0  0  0  0  0  0
   30.4264   38.8222   62.1519 O   0  0  0  0  0  0  0  0  0  0  0  0
   30.6804   36.7309   62.8557 N   0  0  0  0  0  0  0  0  0  0  0  0
   29.9848   37.0229   64.1116 C   0  0  0  0  0  0  0  0  0  0  0  0
   30.9834   37.4759   65.1454 C   0  0  0  0  0  0  0  0  0  0  0  0
   32.3279   37.5618   64.8310 C   0  0  0  0  0  0  0  0  0  0  0  0
   33.2126   37.9843   65.8141 C   0  0  0  0  0  0  0  0  0  0  0  0
   32.7287   38.3045   67.0669 C   0  0  0  0  0  0  0  0  0  0  0  0
   33.6838   38.7648   68.1379 C   0  0  0  0  0  0  0  0  0  0  0  0
   31.4407   38.2132   67.3386 N   0  0  0  0  0  0  0  0  0  0  0  0
   30.5657   37.8139   66.4283 C   0  0  0  0  0  0  0  0  0  0  0  0
   29.2177   37.7322   66.7577 N   0  0  0  0  0  0  0  0  0  0  0  0
   32.2231   38.4270   59.9915 C   0  0  0  0  0  0  0  0  0  0  0  0
   32.8831   38.1476   58.8094 C   0  0  0  0  0  0  0  0  0  0  0  0
   33.5417   39.1373   58.1488 O   0  0  0  0  0  0  0  0  0  0  0  0
   32.7954   39.8814   57.1836 C   0  0  0  0  0  0  0  0  0  0  0  0
   32.8692   36.8553   58.2917 C   0  0  0  0  0  0  0  0  0  0  0  0
   33.5137   36.5845   57.1263 O   0  0  0  0  0  0  0  0  0  0  0  0
   32.7213   36.0821   56.0484 C   0  0  0  0  0  0  0  0  0  0  0  0
   31.5440   32.6276   58.6860 H   0  0  0  0  0  0  0  0  0  0  0  0
   31.9097   33.4966   60.1957 H   0  0  0  0  0  0  0  0  0  0  0  0
   30.4272   33.8767   59.2870 H   0  0  0  0  0  0  0  0  0  0  0  0
   31.0162   35.3251   60.6727 H   0  0  0  0  0  0  0  0  0  0  0  0
   31.0185   35.8380   62.6849 H   0  0  0  0  0  0  0  0  0  0  0  0
   29.4794   36.1239   64.4644 H   0  0  0  0  0  0  0  0  0  0  0  0
   29.2506   37.8112   63.9456 H   0  0  0  0  0  0  0  0  0  0  0  0
   32.6814   37.3063   63.8431 H   0  0  0  0  0  0  0  0  0  0  0  0
   34.2684   38.0625   65.6009 H   0  0  0  0  0  0  0  0  0  0  0  0
   34.0465   37.9019   68.6965 H   0  0  0  0  0  0  0  0  0  0  0  0
   34.5267   39.2792   67.6763 H   0  0  0  0  0  0  0  0  0  0  0  0
   33.1691   39.4460   68.8154 H   0  0  0  0  0  0  0  0  0  0  0  0
   28.9217   37.9672   67.6512 H   0  0  0  0  0  0  0  0  0  0  0  0
   28.5732   37.4402   66.0943 H   0  0  0  0  0  0  0  0  0  0  0  0
   32.2304   39.4305   60.3905 H   0  0  0  0  0  0  0  0  0  0  0  0
   33.4376   40.6372   56.7317 H   0  0  0  0  0  0  0  0  0  0  0  0
   32.4280   39.2070   56.4101 H   0  0  0  0  0  0  0  0  0  0  0  0
   31.9512   40.3671   57.6729 H   0  0  0  0  0  0  0  0  0  0  0  0
   32.2524   35.1449   56.3484 H   0  0  0  0  0  0  0  0  0  0  0  0
   31.9501   36.8093   55.7946 H   0  0  0  0  0  0  0  0  0  0  0  0
   33.3572   35.9086   55.1802 H   0  0  0  0  0  0  0  0  0  0  0  0
  1  2  1  0  0  0  0
  1 25  1  0  0  0  0
  1 26  1  0  0  0  0
  1 27  1  0  0  0  0
  2  3  1  0  0  0  0
  3 22  2  0  0  0  0
  3  4  1  0  0  0  0
  4  5  2  0  0  0  0
  4 28  1  0  0  0  0
  5  6  1  0  0  0  0
  5 18  1  0  0  0  0
  6  7  2  0  0  0  0
  6  8  1  0  0  0  0
  8  9  1  0  0  0  0
  8 29  1  0  0  0  0
  9 10  1  0  0  0  0
  9 30  1  0  0  0  0
  9 31  1  0  0  0  0
 10 16  2  0  0  0  0
 10 11  1  0  0  0  0
 11 12  2  0  0  0  0
 11 32  1  0  0  0  0
 12 13  1  0  0  0  0
 12 33  1  0  0  0  0
 13 14  1  0  0  0  0
 13 15  2  0  0  0  0
 14 34  1  0  0  0  0
 14 35  1  0  0  0  0
 14 36  1  0  0  0  0
 15 16  1  0  0  0  0
 16 17  1  0  0  0  0
 17 37  1  0  0  0  0
 17 38  1  0  0  0  0
 18 19  2  0  0  0  0
 18 39  1  0  0  0  0
 19 20  1  0  0  0  0
 19 22  1  0  0  0  0
 20 21  1  0  0  0  0
 21 40  1  0  0  0  0
 21 41  1  0  0  0  0
 21 42  1  0  0  0  0
 22 23  1  0  0  0  0
 23 24  1  0  0  0  0
 24 43  1  0  0  0  0
 24 44  1  0  0  0  0
 24 45  1  0  0  0  0
M  END
$$$$
