ZINC000000034505      none
 OpenBabel11202420153D

 38 40  0  0  0  0  0  0  0  0999 V2000
   31.4360   38.0210   64.1030 C   0  0  0  0  0  0  0  0  0  0  0  0
   31.2529   36.7029   63.5821 O   0  0  0  0  0  0  0  0  0  0  0  0
   31.5514   36.5117   62.2762 C   0  0  0  0  0  0  0  0  0  0  0  0
   31.4036   35.3102   61.7311 N   0  0  0  0  0  0  0  0  0  0  0  0
   31.6971   35.1212   60.4481 C   0  0  0  0  0  0  0  0  0  0  0  0
   31.5429   33.8713   59.8811 N   0  0  0  0  0  0  0  0  0  0  0  0
   31.8520   33.6724   58.5295 C   0  0  0  0  0  0  0  0  0  0  0  0
   30.8728   33.2279   57.6511 C   0  0  0  0  0  0  0  0  0  0  0  0
   31.1774   33.0358   56.3180 C   0  0  0  0  0  0  0  0  0  0  0  0
   32.4636   33.2778   55.8581 C   0  0  0  0  0  0  0  0  0  0  0  0
   32.7640   33.0839   54.5462 O   0  0  0  0  0  0  0  0  0  0  0  0
   34.1057   32.7005   54.2377 C   0  0  0  0  0  0  0  0  0  0  0  0
   34.6379   31.9670   55.3035 F   0  0  0  0  0  0  0  0  0  0  0  0
   34.1116   31.9136   53.0810 F   0  0  0  0  0  0  0  0  0  0  0  0
   34.8811   33.8457   54.0266 F   0  0  0  0  0  0  0  0  0  0  0  0
   33.4435   33.7172   56.7360 C   0  0  0  0  0  0  0  0  0  0  0  0
   33.1394   33.9140   58.0686 C   0  0  0  0  0  0  0  0  0  0  0  0
   32.1339   36.1368   59.7098 N   0  0  0  0  0  0  0  0  0  0  0  0
   32.2862   37.3381   60.2577 C   0  0  0  0  0  0  0  0  0  0  0  0
   32.7440   38.3921   59.4936 N   0  0  0  0  0  0  0  0  0  0  0  0
   33.0621   38.1870   58.0783 C   0  0  0  0  0  0  0  0  0  0  0  0
   33.0754   39.4192   57.1715 C   0  0  0  0  0  0  0  0  0  0  0  0
   31.9378   38.4019   57.0631 C   0  0  0  0  0  0  0  0  0  0  0  0
   31.9921   37.5251   61.5412 N   0  0  0  0  0  0  0  0  0  0  0  0
   31.1611   38.0361   65.1577 H   0  0  0  0  0  0  0  0  0  0  0  0
   32.4808   38.3123   63.9956 H   0  0  0  0  0  0  0  0  0  0  0  0
   30.8055   38.7198   63.5533 H   0  0  0  0  0  0  0  0  0  0  0  0
   31.2203   33.1312   60.4188 H   0  0  0  0  0  0  0  0  0  0  0  0
   29.8725   33.0356   58.0098 H   0  0  0  0  0  0  0  0  0  0  0  0
   30.4150   32.6938   55.6338 H   0  0  0  0  0  0  0  0  0  0  0  0
   34.4448   33.9052   56.3773 H   0  0  0  0  0  0  0  0  0  0  0  0
   33.9026   34.2555   58.7521 H   0  0  0  0  0  0  0  0  0  0  0  0
   32.8552   39.2687   59.8936 H   0  0  0  0  0  0  0  0  0  0  0  0
   33.7862   37.3998   57.8684 H   0  0  0  0  0  0  0  0  0  0  0  0
   33.8082   39.4426   56.3649 H   0  0  0  0  0  0  0  0  0  0  0  0
   32.8474   40.3825   57.6279 H   0  0  0  0  0  0  0  0  0  0  0  0
   30.9614   38.6958   57.4483 H   0  0  0  0  0  0  0  0  0  0  0  0
   31.9220   37.7563   56.1851 H   0  0  0  0  0  0  0  0  0  0  0  0
  1  2  1  0  0  0  0
  1 25  1  0  0  0  0
  1 26  1  0  0  0  0
  1 27  1  0  0  0  0
  2  3  1  0  0  0  0
  3 24  2  0  0  0  0
  3  4  1  0  0  0  0
  4  5  2  0  0  0  0
  5  6  1  0  0  0  0
  5 18  1  0  0  0  0
  6  7  1  0  0  0  0
  6 28  1  0  0  0  0
  7 17  2  0  0  0  0
  7  8  1  0  0  0  0
  8  9  2  0  0  0  0
  8 29  1  0  0  0  0
  9 10  1  0  0  0  0
  9 30  1  0  0  0  0
 10 11  1  0  0  0  0
 10 16  2  0  0  0  0
 11 12  1  0  0  0  0
 12 13  1  0  0  0  0
 12 14  1  0  0  0  0
 12 15  1  0  0  0  0
 16 17  1  0  0  0  0
 16 31  1  0  0  0  0
 17 32  1  0  0  0  0
 18 19  2  0  0  0  0
 19 20  1  0  0  0  0
 19 24  1  0  0  0  0
 20 21  1  0  0  0  0
 20 33  1  0  0  0  0
 21 23  1  0  0  0  0
 21 22  1  0  0  0  0
 21 34  1  0  0  0  0
 22 23  1  0  0  0  0
 22 35  1  0  0  0  0
 22 36  1  0  0  0  0
 23 37  1  0  0  0  0
 23 38  1  0  0  0  0
M  END
$$$$
