ZINC000000035372      none
 OpenBabel11202420153D

 31 33  0  0  0  0  0  0  0  0999 V2000
   30.1727   38.9596   64.0305 C   0  0  0  0  0  0  0  0  0  0  0  0
   29.4724   38.0350   63.1959 O   0  0  0  0  0  0  0  0  0  0  0  0
   30.1284   37.5735   62.1003 C   0  0  0  0  0  0  0  0  0  0  0  0
   29.5054   36.6724   61.2470 C   0  0  0  0  0  0  0  0  0  0  0  0
   30.1689   36.2024   60.1345 C   0  0  0  0  0  0  0  0  0  0  0  0
   31.4689   36.6328   59.8658 C   0  0  0  0  0  0  0  0  0  0  0  0
   32.1852   36.1296   58.6716 C   0  0  0  0  0  0  0  0  0  0  0  0
   32.4244   34.8499   58.4998 N   0  0  0  0  0  0  0  0  0  0  0  0
   33.1826   34.3300   57.3707 C   0  0  0  0  0  0  0  0  0  0  0  0
   32.9487   35.1113   56.0801 C   0  0  0  0  0  0  0  0  0  0  0  0
   33.0255   36.5457   56.3713 N   0  0  0  0  0  0  0  0  0  0  0  0
   33.4184   37.5773   55.6011 C   0  0  0  0  0  0  0  0  0  0  0  0
   33.3184   38.7201   56.3276 C   0  0  0  0  0  0  0  0  0  0  0  0
   32.8411   38.3787   57.6042 C   0  0  0  0  0  0  0  0  0  0  0  0
   32.6645   37.0402   57.6162 C   0  0  0  0  0  0  0  0  0  0  0  0
   32.0946   37.5339   60.7283 C   0  0  0  0  0  0  0  0  0  0  0  0
   31.4234   38.0040   61.8362 C   0  0  0  0  0  0  0  0  0  0  0  0
   29.5361   39.2479   64.8671 H   0  0  0  0  0  0  0  0  0  0  0  0
   31.0810   38.4913   64.4095 H   0  0  0  0  0  0  0  0  0  0  0  0
   30.4348   39.8452   63.4515 H   0  0  0  0  0  0  0  0  0  0  0  0
   28.4994   36.3394   61.4558 H   0  0  0  0  0  0  0  0  0  0  0  0
   29.6833   35.5021   59.4710 H   0  0  0  0  0  0  0  0  0  0  0  0
   34.2444   34.3688   57.6138 H   0  0  0  0  0  0  0  0  0  0  0  0
   32.9003   33.2899   57.2080 H   0  0  0  0  0  0  0  0  0  0  0  0
   31.9620   34.8715   55.6838 H   0  0  0  0  0  0  0  0  0  0  0  0
   33.7123   34.8458   55.3491 H   0  0  0  0  0  0  0  0  0  0  0  0
   33.7556   37.5078   54.5775 H   0  0  0  0  0  0  0  0  0  0  0  0
   33.5620   39.7150   55.9849 H   0  0  0  0  0  0  0  0  0  0  0  0
   32.6509   39.0586   58.4215 H   0  0  0  0  0  0  0  0  0  0  0  0
   33.1021   37.8656   60.5257 H   0  0  0  0  0  0  0  0  0  0  0  0
   31.9055   38.7046   62.5019 H   0  0  0  0  0  0  0  0  0  0  0  0
  1  2  1  0  0  0  0
  1 18  1  0  0  0  0
  1 19  1  0  0  0  0
  1 20  1  0  0  0  0
  2  3  1  0  0  0  0
  3 17  2  0  0  0  0
  3  4  1  0  0  0  0
  4  5  2  0  0  0  0
  4 21  1  0  0  0  0
  5  6  1  0  0  0  0
  5 22  1  0  0  0  0
  6  7  1  0  0  0  0
  6 16  2  0  0  0  0
  7 15  1  0  0  0  0
  7  8  2  0  0  0  0
  8  9  1  0  0  0  0
  9 10  1  0  0  0  0
  9 23  1  0  0  0  0
  9 24  1  0  0  0  0
 10 11  1  0  0  0  0
 10 25  1  0  0  0  0
 10 26  1  0  0  0  0
 11 15  1  0  0  0  0
 11 12  1  0  0  0  0
 12 13  2  0  0  0  0
 12 27  1  0  0  0  0
 13 14  1  0  0  0  0
 13 28  1  0  0  0  0
 14 15  2  0  0  0  0
 14 29  1  0  0  0  0
 16 17  1  0  0  0  0
 16 30  1  0  0  0  0
 17 31  1  0  0  0  0
M  END
$$$$
