ZINC000000002336      none
 OpenBabel11202420153D

 40 42  0  0  0  0  0  0  0  0999 V2000
   31.7651   37.9862   64.6896 C   0  0  0  0  0  0  0  0  0  0  0  0
   31.4370   38.3766   63.3162 N   0  0  0  0  0  0  0  0  0  0  0  0
   30.4426   39.4238   63.0700 C   0  0  0  0  0  0  0  0  0  0  0  0
   32.0501   37.7722   62.2793 C   0  0  0  0  0  0  0  0  0  0  0  0
   32.8734   36.9052   62.4830 O   0  0  0  0  0  0  0  0  0  0  0  0
   31.7127   38.1737   60.8664 C   0  0  0  0  0  0  0  0  0  0  0  0
   31.8876   37.0231   59.9767 N   0  0  0  0  0  0  0  0  0  0  0  0
   31.4591   35.7437   60.2112 C   0  0  0  0  0  0  0  0  0  0  0  0
   30.7355   35.2972   61.4213 C   0  0  0  0  0  0  0  0  0  0  0  0
   31.2773   34.3005   62.2339 C   0  0  0  0  0  0  0  0  0  0  0  0
   30.5996   33.8918   63.3640 C   0  0  0  0  0  0  0  0  0  0  0  0
   29.3807   34.4604   63.6868 C   0  0  0  0  0  0  0  0  0  0  0  0
   28.6434   34.0055   64.9199 C   0  0  0  0  0  0  0  0  0  0  0  0
   29.3848   33.0111   65.5662 F   0  0  0  0  0  0  0  0  0  0  0  0
   28.4656   35.0912   65.7843 F   0  0  0  0  0  0  0  0  0  0  0  0
   27.3943   33.4922   64.5536 F   0  0  0  0  0  0  0  0  0  0  0  0
   28.8352   35.4455   62.8824 C   0  0  0  0  0  0  0  0  0  0  0  0
   29.5054   35.8668   61.7524 C   0  0  0  0  0  0  0  0  0  0  0  0
   31.7864   34.9746   59.2020 N   0  0  0  0  0  0  0  0  0  0  0  0
   32.4383   35.7073   58.2686 C   0  0  0  0  0  0  0  0  0  0  0  0
   33.0007   35.4061   57.0226 C   0  0  0  0  0  0  0  0  0  0  0  0
   33.6074   36.4274   56.3170 C   0  0  0  0  0  0  0  0  0  0  0  0
   33.6417   37.7043   56.8554 C   0  0  0  0  0  0  0  0  0  0  0  0
   33.1071   37.9679   58.0299 N   0  0  0  0  0  0  0  0  0  0  0  0
   32.5136   37.0283   58.7485 C   0  0  0  0  0  0  0  0  0  0  0  0
   32.5885   38.5998   65.0549 H   0  0  0  0  0  0  0  0  0  0  0  0
   30.8929   38.1318   65.3269 H   0  0  0  0  0  0  0  0  0  0  0  0
   32.0579   36.9365   64.7088 H   0  0  0  0  0  0  0  0  0  0  0  0
   29.4539   38.9730   62.9843 H   0  0  0  0  0  0  0  0  0  0  0  0
   30.4482   40.1322   63.8984 H   0  0  0  0  0  0  0  0  0  0  0  0
   30.6856   39.9452   62.1442 H   0  0  0  0  0  0  0  0  0  0  0  0
   32.3735   38.9810   60.5505 H   0  0  0  0  0  0  0  0  0  0  0  0
   30.6778   38.5131   60.8224 H   0  0  0  0  0  0  0  0  0  0  0  0
   32.2270   33.8529   61.9809 H   0  0  0  0  0  0  0  0  0  0  0  0
   31.0195   33.1232   63.9959 H   0  0  0  0  0  0  0  0  0  0  0  0
   27.8829   35.8853   63.1394 H   0  0  0  0  0  0  0  0  0  0  0  0
   29.0786   36.6355   61.1250 H   0  0  0  0  0  0  0  0  0  0  0  0
   32.9577   34.4042   56.6219 H   0  0  0  0  0  0  0  0  0  0  0  0
   34.0515   36.2322   55.3522 H   0  0  0  0  0  0  0  0  0  0  0  0
   34.1169   38.4995   56.3004 H   0  0  0  0  0  0  0  0  0  0  0  0
  1  2  1  0  0  0  0
  1 26  1  0  0  0  0
  1 27  1  0  0  0  0
  1 28  1  0  0  0  0
  2  3  1  0  0  0  0
  2  4  1  0  0  0  0
  3 29  1  0  0  0  0
  3 30  1  0  0  0  0
  3 31  1  0  0  0  0
  4  5  2  0  0  0  0
  4  6  1  0  0  0  0
  6  7  1  0  0  0  0
  6 32  1  0  0  0  0
  6 33  1  0  0  0  0
  7 25  1  0  0  0  0
  7  8  1  0  0  0  0
  8  9  1  0  0  0  0
  8 19  2  0  0  0  0
  9 18  2  0  0  0  0
  9 10  1  0  0  0  0
 10 11  2  0  0  0  0
 10 34  1  0  0  0  0
 11 12  1  0  0  0  0
 11 35  1  0  0  0  0
 12 13  1  0  0  0  0
 12 17  2  0  0  0  0
 13 14  1  0  0  0  0
 13 15  1  0  0  0  0
 13 16  1  0  0  0  0
 17 18  1  0  0  0  0
 17 36  1  0  0  0  0
 18 37  1  0  0  0  0
 19 20  1  0  0  0  0
 20 25  2  0  0  0  0
 20 21  1  0  0  0  0
 21 22  2  0  0  0  0
 21 38  1  0  0  0  0
 22 23  1  0  0  0  0
 22 39  1  0  0  0  0
 23 24  2  0  0  0  0
 23 40  1  0  0  0  0
 24 25  1  0  0  0  0
M  END
$$$$
