ZINC000000002198      none
 OpenBabel11202420153D

 42 44  0  0  1  0  0  0  0  0999 V2000
   30.8578   35.6203   66.5325 C   0  0  0  0  0  0  0  0  0  0  0  0
   30.1253   35.1784   65.2918 C   0  0  0  0  0  0  0  0  0  0  0  0
   30.7305   35.2027   64.1302 C   0  0  0  0  0  0  0  0  0  0  0  0
   32.1559   35.6402   63.8303 C   0  0  0  0  0  0  0  0  0  0  0  0
   32.0768   36.2186   62.3975 C   0  0  2  0  0  0  0  0  0  0  0  0
   33.0101   36.1378   61.8402 H   0  0  0  0  0  0  0  0  0  0  0  0
   31.5713   37.7262   62.6252 C   0  0  2  0  0  0  0  0  0  0  0  0
   32.4082   38.3971   62.8191 H   0  0  0  0  0  0  0  0  0  0  0  0
   30.6086   37.7924   63.6791 O   0  0  0  0  0  0  0  0  0  0  0  0
   30.1161   39.1094   63.9345 C   0  0  0  0  0  0  0  0  0  0  0  0
   30.9422   38.0219   61.3053 N   0  0  0  0  0  0  0  0  0  0  0  0
   31.5992   37.7532   60.1338 C   0  0  0  0  0  0  0  0  0  0  0  0
   32.2077   38.7673   59.3947 C   0  0  0  0  0  0  0  0  0  0  0  0
   32.9392   38.4343   58.2657 C   0  0  0  0  0  0  0  0  0  0  0  0
   33.5284   39.4190   57.5395 O   0  0  0  0  0  0  0  0  0  0  0  0
   33.0823   37.1056   57.8606 C   0  0  0  0  0  0  0  0  0  0  0  0
   33.8381   36.8018   56.7704 O   0  0  0  0  0  0  0  0  0  0  0  0
   33.1718   36.7733   55.5066 C   0  0  0  0  0  0  0  0  0  0  0  0
   32.4516   36.0974   58.5724 C   0  0  0  0  0  0  0  0  0  0  0  0
   31.6884   36.4556   59.6749 C   0  0  0  0  0  0  0  0  0  0  0  0
   30.8247   35.4759   60.4060 C   0  0  0  0  0  0  0  0  0  0  0  0
   30.0705   34.7178   59.8263 O   0  0  0  0  0  0  0  0  0  0  0  0
   30.9387   35.4896   61.7650 N   0  0  0  0  0  0  0  0  0  0  0  0
   30.1680   34.8009   62.7795 C   0  0  0  0  0  0  0  0  0  0  0  0
   31.7357   34.9910   66.6796 H   0  0  0  0  0  0  0  0  0  0  0  0
   31.1699   36.6585   66.4199 H   0  0  0  0  0  0  0  0  0  0  0  0
   30.1979   35.5308   67.3954 H   0  0  0  0  0  0  0  0  0  0  0  0
   29.1015   34.8417   65.3603 H   0  0  0  0  0  0  0  0  0  0  0  0
   32.4762   36.4075   64.5350 H   0  0  0  0  0  0  0  0  0  0  0  0
   32.8321   34.7858   63.8608 H   0  0  0  0  0  0  0  0  0  0  0  0
   30.9451   39.7593   64.2149 H   0  0  0  0  0  0  0  0  0  0  0  0
   29.6369   39.4988   63.0362 H   0  0  0  0  0  0  0  0  0  0  0  0
   29.3907   39.0748   64.7473 H   0  0  0  0  0  0  0  0  0  0  0  0
   30.0555   38.4143   61.2762 H   0  0  0  0  0  0  0  0  0  0  0  0
   32.1097   39.7991   59.6979 H   0  0  0  0  0  0  0  0  0  0  0  0
   34.0184   39.1001   56.7693 H   0  0  0  0  0  0  0  0  0  0  0  0
   33.8870   36.5191   54.7244 H   0  0  0  0  0  0  0  0  0  0  0  0
   32.3787   36.0260   55.5308 H   0  0  0  0  0  0  0  0  0  0  0  0
   32.7413   37.7535   55.3008 H   0  0  0  0  0  0  0  0  0  0  0  0
   32.5508   35.0632   58.2774 H   0  0  0  0  0  0  0  0  0  0  0  0
   29.1207   35.0955   62.7123 H   0  0  0  0  0  0  0  0  0  0  0  0
   30.2601   33.7230   62.6461 H   0  0  0  0  0  0  0  0  0  0  0  0
  1  2  1  0  0  0  0
  1 25  1  0  0  0  0
  1 26  1  0  0  0  0
  1 27  1  0  0  0  0
  2  3  2  0  0  0  0
  2 28  1  0  0  0  0
  3 24  1  0  0  0  0
  3  4  1  0  0  0  0
  4  5  1  0  0  0  0
  4 29  1  0  0  0  0
  4 30  1  0  0  0  0
  5  6  1  6  0  0  0
  5 23  1  0  0  0  0
  5  7  1  0  0  0  0
  7  8  1  1  0  0  0
  7  9  1  0  0  0  0
  7 11  1  0  0  0  0
  9 10  1  0  0  0  0
 10 31  1  0  0  0  0
 10 32  1  0  0  0  0
 10 33  1  0  0  0  0
 11 12  1  0  0  0  0
 11 34  1  0  0  0  0
 12 20  2  0  0  0  0
 12 13  1  0  0  0  0
 13 14  2  0  0  0  0
 13 35  1  0  0  0  0
 14 15  1  0  0  0  0
 14 16  1  0  0  0  0
 15 36  1  0  0  0  0
 16 17  1  0  0  0  0
 16 19  2  0  0  0  0
 17 18  1  0  0  0  0
 18 37  1  0  0  0  0
 18 38  1  0  0  0  0
 18 39  1  0  0  0  0
 19 20  1  0  0  0  0
 19 40  1  0  0  0  0
 20 21  1  0  0  0  0
 21 22  2  0  0  0  0
 21 23  1  0  0  0  0
 23 24  1  0  0  0  0
 24 41  1  0  0  0  0
 24 42  1  0  0  0  0
M  END
$$$$
