ZINC000000029684      none
 OpenBabel11202420163D

 23 23  0  0  0  0  0  0  0  0999 V2000
   30.7150   37.8298   61.7710 C   0  0  0  0  0  0  0  0  0  0  0  0
   31.4575   37.5036   60.5008 C   0  0  0  0  0  0  0  0  0  0  0  0
   32.0126   38.5176   59.7447 C   0  0  0  0  0  0  0  0  0  0  0  0
   32.6942   38.2189   58.5786 C   0  0  0  0  0  0  0  0  0  0  0  0
   33.4518   39.6099   57.5457 Br  0  0  0  0  0  0  0  0  0  0  0  0
   32.8273   36.9037   58.1692 C   0  0  0  0  0  0  0  0  0  0  0  0
   32.2699   35.8863   58.9181 C   0  0  0  0  0  0  0  0  0  0  0  0
   31.5844   36.1832   60.0895 C   0  0  0  0  0  0  0  0  0  0  0  0
   31.0236   35.1555   60.8519 N   0  0  0  0  0  0  0  0  0  0  0  0
   31.9119   34.4320   62.0477 S   0  0  0  0  0  0  0  0  0  0  0  0
   32.7484   33.0526   61.2184 C   0  0  0  0  0  0  0  0  0  0  0  0
   32.8518   35.4247   62.4353 O   0  0  0  0  0  0  0  0  0  0  0  0
   30.9387   33.9474   62.9627 O   0  0  0  0  0  0  0  0  0  0  0  0
   31.4111   37.8267   62.6098 H   0  0  0  0  0  0  0  0  0  0  0  0
   30.2579   38.8153   61.6819 H   0  0  0  0  0  0  0  0  0  0  0  0
   29.9390   37.0833   61.9402 H   0  0  0  0  0  0  0  0  0  0  0  0
   31.9142   39.5445   60.0641 H   0  0  0  0  0  0  0  0  0  0  0  0
   33.3638   36.6731   57.2607 H   0  0  0  0  0  0  0  0  0  0  0  0
   32.3706   34.8604   58.5961 H   0  0  0  0  0  0  0  0  0  0  0  0
   30.1137   34.8657   60.6808 H   0  0  0  0  0  0  0  0  0  0  0  0
   33.3806   33.4388   60.4189 H   0  0  0  0  0  0  0  0  0  0  0  0
   33.3630   32.5140   61.9396 H   0  0  0  0  0  0  0  0  0  0  0  0
   32.0042   32.3759   60.7983 H   0  0  0  0  0  0  0  0  0  0  0  0
  1  2  1  0  0  0  0
  1 14  1  0  0  0  0
  1 15  1  0  0  0  0
  1 16  1  0  0  0  0
  2  8  2  0  0  0  0
  2  3  1  0  0  0  0
  3  4  2  0  0  0  0
  3 17  1  0  0  0  0
  4  5  1  0  0  0  0
  4  6  1  0  0  0  0
  6  7  2  0  0  0  0
  6 18  1  0  0  0  0
  7  8  1  0  0  0  0
  7 19  1  0  0  0  0
  8  9  1  0  0  0  0
  9 10  1  0  0  0  0
  9 20  1  0  0  0  0
 10 11  1  0  0  0  0
 10 12  2  0  0  0  0
 10 13  2  0  0  0  0
 11 21  1  0  0  0  0
 11 22  1  0  0  0  0
 11 23  1  0  0  0  0
M  END
$$$$
