ZINC000000045597      none
 OpenBabel11202420153D

 43 46  0  0  0  0  0  0  0  0999 V2000
   28.9735   31.7932   65.6879 C   0  0  0  0  0  0  0  0  0  0  0  0
   28.3834   33.1465   65.2870 C   0  0  0  0  0  0  0  0  0  0  0  0
   28.8137   34.1960   66.2792 C   0  0  0  0  0  0  0  0  0  0  0  0
   28.0321   34.4406   67.3997 C   0  0  0  0  0  0  0  0  0  0  0  0
   26.7613   33.6624   67.6242 C   0  0  0  0  0  0  0  0  0  0  0  0
   28.4301   35.4162   68.3138 C   0  0  0  0  0  0  0  0  0  0  0  0
   27.6405   35.6930   69.4759 C   0  0  0  0  0  0  0  0  0  0  0  0
   27.0141   35.9126   70.3978 N   0  0  0  0  0  0  0  0  0  0  0  0
   29.6731   36.1535   68.0613 C   0  0  0  0  0  0  0  0  0  0  0  0
   30.2780   37.1094   68.7419 N   0  0  0  0  0  0  0  0  0  0  0  0
   31.4127   37.4774   68.1008 C   0  0  0  0  0  0  0  0  0  0  0  0
   32.4075   38.4222   68.3777 C   0  0  0  0  0  0  0  0  0  0  0  0
   33.4621   38.5708   67.5227 C   0  0  0  0  0  0  0  0  0  0  0  0
   33.5600   37.7928   66.3777 C   0  0  0  0  0  0  0  0  0  0  0  0
   32.5920   36.8549   66.0846 C   0  0  0  0  0  0  0  0  0  0  0  0
   31.5126   36.6894   66.9405 C   0  0  0  0  0  0  0  0  0  0  0  0
   30.4037   35.8605   66.9355 N   0  0  0  0  0  0  0  0  0  0  0  0
   29.9794   34.8968   66.0644 C   0  0  0  0  0  0  0  0  0  0  0  0
   30.7304   34.6247   64.9453 N   0  0  0  0  0  0  0  0  0  0  0  0
   30.4947   35.3241   63.7585 C   0  0  0  0  0  0  0  0  0  0  0  0
   31.2523   35.0501   62.6268 C   0  0  0  0  0  0  0  0  0  0  0  0
   31.0203   35.7468   61.4571 C   0  0  0  0  0  0  0  0  0  0  0  0
   30.0273   36.7081   61.4085 C   0  0  0  0  0  0  0  0  0  0  0  0
   29.2713   36.9833   62.5332 C   0  0  0  0  0  0  0  0  0  0  0  0
   29.5019   36.2944   63.7076 C   0  0  0  0  0  0  0  0  0  0  0  0
   30.0615   31.8597   65.6973 H   0  0  0  0  0  0  0  0  0  0  0  0
   28.6174   31.5213   66.6815 H   0  0  0  0  0  0  0  0  0  0  0  0
   28.6624   31.0341   64.9702 H   0  0  0  0  0  0  0  0  0  0  0  0
   27.2955   33.0800   65.2774 H   0  0  0  0  0  0  0  0  0  0  0  0
   28.7394   33.4183   64.2933 H   0  0  0  0  0  0  0  0  0  0  0  0
   25.9282   34.1831   67.1518 H   0  0  0  0  0  0  0  0  0  0  0  0
   26.8623   32.6683   67.1889 H   0  0  0  0  0  0  0  0  0  0  0  0
   26.5741   33.5732   68.6943 H   0  0  0  0  0  0  0  0  0  0  0  0
   32.3408   39.0332   69.2657 H   0  0  0  0  0  0  0  0  0  0  0  0
   34.2274   39.3013   67.7396 H   0  0  0  0  0  0  0  0  0  0  0  0
   34.4003   37.9224   65.7117 H   0  0  0  0  0  0  0  0  0  0  0  0
   32.6736   36.2522   65.1922 H   0  0  0  0  0  0  0  0  0  0  0  0
   31.4240   33.9474   64.9796 H   0  0  0  0  0  0  0  0  0  0  0  0
   32.0249   34.2963   62.6628 H   0  0  0  0  0  0  0  0  0  0  0  0
   31.6120   35.5374   60.5782 H   0  0  0  0  0  0  0  0  0  0  0  0
   29.8449   37.2483   60.4912 H   0  0  0  0  0  0  0  0  0  0  0  0
   28.4994   37.7376   62.4929 H   0  0  0  0  0  0  0  0  0  0  0  0
   28.9114   36.5101   64.5859 H   0  0  0  0  0  0  0  0  0  0  0  0
  1  2  1  0  0  0  0
  1 26  1  0  0  0  0
  1 27  1  0  0  0  0
  1 28  1  0  0  0  0
  2  3  1  0  0  0  0
  2 29  1  0  0  0  0
  2 30  1  0  0  0  0
  3 18  2  0  0  0  0
  3  4  1  0  0  0  0
  4  5  1  0  0  0  0
  4  6  2  0  0  0  0
  5 31  1  0  0  0  0
  5 32  1  0  0  0  0
  5 33  1  0  0  0  0
  6  7  1  0  0  0  0
  6  9  1  0  0  0  0
  7  8  3  0  0  0  0
  9 17  1  0  0  0  0
  9 10  2  0  0  0  0
 10 11  1  0  0  0  0
 11 16  2  0  0  0  0
 11 12  1  0  0  0  0
 12 13  2  0  0  0  0
 12 34  1  0  0  0  0
 13 14  1  0  0  0  0
 13 35  1  0  0  0  0
 14 15  2  0  0  0  0
 14 36  1  0  0  0  0
 15 16  1  0  0  0  0
 15 37  1  0  0  0  0
 16 17  1  0  0  0  0
 17 18  1  0  0  0  0
 18 19  1  0  0  0  0
 19 20  1  0  0  0  0
 19 38  1  0  0  0  0
 20 25  2  0  0  0  0
 20 21  1  0  0  0  0
 21 22  2  0  0  0  0
 21 39  1  0  0  0  0
 22 23  1  0  0  0  0
 22 40  1  0  0  0  0
 23 24  2  0  0  0  0
 23 41  1  0  0  0  0
 24 25  1  0  0  0  0
 24 42  1  0  0  0  0
 25 43  1  0  0  0  0
M  END
$$$$
