ZINC000000053638      none
 OpenBabel11202420153D

 26 27  0  0  0  0  0  0  0  0999 V2000
   32.3068   39.0607   59.8727 N   0  0  0  0  0  0  0  0  0  0  0  0
   32.6681   38.4903   58.6612 C   0  0  0  0  0  0  0  0  0  0  0  0
   32.4311   37.2655   58.2872 N   0  0  0  0  0  0  0  0  0  0  0  0
   32.8335   36.9148   57.1447 N   0  0  0  0  0  0  0  0  0  0  0  0
   33.4524   37.7921   56.4240 C   0  0  0  0  0  0  0  0  0  0  0  0
   34.0076   37.5716   55.0404 C   0  0  0  0  0  0  0  0  0  0  0  0
   33.7326   36.1542   54.6087 C   0  0  0  0  0  0  0  0  0  0  0  0
   32.6255   35.9145   53.9823 C   0  0  0  0  0  0  0  0  0  0  0  0
   32.2093   34.5558   53.5000 C   0  0  0  0  0  0  0  0  0  0  0  0
   33.4169   33.6164   53.4650 C   0  0  0  0  0  0  0  0  0  0  0  0
   34.1452   33.7120   54.8115 C   0  0  0  0  0  0  0  0  0  0  0  0
   34.7619   35.1095   54.9265 C   0  0  0  0  0  0  0  0  0  0  0  0
   33.5316   39.2936   57.3480 S   0  0  0  0  0  0  0  0  0  0  0  0
   31.8314   38.5339   60.5342 H   0  0  0  0  0  0  0  0  0  0  0  0
   32.5296   39.9862   60.0587 H   0  0  0  0  0  0  0  0  0  0  0  0
   33.5324   38.2623   54.3439 H   0  0  0  0  0  0  0  0  0  0  0  0
   35.0835   37.7467   55.0484 H   0  0  0  0  0  0  0  0  0  0  0  0
   31.9600   36.7442   53.7947 H   0  0  0  0  0  0  0  0  0  0  0  0
   31.4546   34.1491   54.1731 H   0  0  0  0  0  0  0  0  0  0  0  0
   31.7888   34.6411   52.4981 H   0  0  0  0  0  0  0  0  0  0  0  0
   33.0800   32.5925   53.3026 H   0  0  0  0  0  0  0  0  0  0  0  0
   34.0887   33.9132   52.6595 H   0  0  0  0  0  0  0  0  0  0  0  0
   33.4361   33.5527   55.6238 H   0  0  0  0  0  0  0  0  0  0  0  0
   34.9306   32.9577   54.8576 H   0  0  0  0  0  0  0  0  0  0  0  0
   35.5949   35.1991   54.2291 H   0  0  0  0  0  0  0  0  0  0  0  0
   35.1267   35.2590   55.9427 H   0  0  0  0  0  0  0  0  0  0  0  0
  1  2  1  0  0  0  0
  1 14  1  0  0  0  0
  1 15  1  0  0  0  0
  2 13  1  0  0  0  0
  2  3  2  0  0  0  0
  3  4  1  0  0  0  0
  4  5  2  0  0  0  0
  5  6  1  0  0  0  0
  5 13  1  0  0  0  0
  6  7  1  0  0  0  0
  6 16  1  0  0  0  0
  6 17  1  0  0  0  0
  7 12  1  0  0  0  0
  7  8  2  0  0  0  0
  8  9  1  0  0  0  0
  8 18  1  0  0  0  0
  9 10  1  0  0  0  0
  9 19  1  0  0  0  0
  9 20  1  0  0  0  0
 10 11  1  0  0  0  0
 10 21  1  0  0  0  0
 10 22  1  0  0  0  0
 11 12  1  0  0  0  0
 11 23  1  0  0  0  0
 11 24  1  0  0  0  0
 12 25  1  0  0  0  0
 12 26  1  0  0  0  0
M  END
$$$$
