ZINC000000031482      none
 OpenBabel11202420163D

 32 33  0  0  0  0  0  0  0  0999 V2000
   34.0197   37.8722   55.0921 C   0  0  0  0  0  0  0  0  0  0  0  0
   33.5255   38.1278   56.4927 C   0  0  0  0  0  0  0  0  0  0  0  0
   33.3195   39.4248   56.9257 C   0  0  0  0  0  0  0  0  0  0  0  0
   32.8721   39.6626   58.2105 C   0  0  0  0  0  0  0  0  0  0  0  0
   32.6184   38.5970   59.0641 C   0  0  0  0  0  0  0  0  0  0  0  0
   32.1592   38.8343   60.3644 N   0  0  0  0  0  0  0  0  0  0  0  0
   31.3656   37.9314   60.9740 C   0  0  0  0  0  0  0  0  0  0  0  0
   31.0497   36.9132   60.3956 O   0  0  0  0  0  0  0  0  0  0  0  0
   30.8708   38.1870   62.3743 C   0  0  0  0  0  0  0  0  0  0  0  0
   32.0503   37.5038   63.5651 S   0  0  0  0  0  0  0  0  0  0  0  0
   31.8056   38.6153   64.9103 C   0  0  0  0  0  0  0  0  0  0  0  0
   31.4467   39.8753   64.8263 N   0  0  0  0  0  0  0  0  0  0  0  0
   31.3606   40.3840   66.0034 N   0  0  0  0  0  0  0  0  0  0  0  0
   31.6645   39.4894   66.9007 C   0  0  0  0  0  0  0  0  0  0  0  0
   31.9590   38.3306   66.2367 N   0  0  0  0  0  0  0  0  0  0  0  0
   32.3564   37.0497   66.8264 C   0  0  0  0  0  0  0  0  0  0  0  0
   32.8213   37.2954   58.6245 C   0  0  0  0  0  0  0  0  0  0  0  0
   33.2743   37.0646   57.3404 C   0  0  0  0  0  0  0  0  0  0  0  0
   33.1683   37.7724   54.4189 H   0  0  0  0  0  0  0  0  0  0  0  0
   34.6426   38.7062   54.7688 H   0  0  0  0  0  0  0  0  0  0  0  0
   34.6056   36.9533   55.0756 H   0  0  0  0  0  0  0  0  0  0  0  0
   33.5123   40.2529   56.2597 H   0  0  0  0  0  0  0  0  0  0  0  0
   32.7154   40.6760   58.5495 H   0  0  0  0  0  0  0  0  0  0  0  0
   32.4118   39.6486   60.8270 H   0  0  0  0  0  0  0  0  0  0  0  0
   30.7730   39.2606   62.5348 H   0  0  0  0  0  0  0  0  0  0  0  0
   29.9003   37.7096   62.5095 H   0  0  0  0  0  0  0  0  0  0  0  0
   31.6810   39.6359   67.9706 H   0  0  0  0  0  0  0  0  0  0  0  0
   33.4419   37.0137   66.9189 H   0  0  0  0  0  0  0  0  0  0  0  0
   31.9042   36.9480   67.8130 H   0  0  0  0  0  0  0  0  0  0  0  0
   32.0190   36.2348   66.1862 H   0  0  0  0  0  0  0  0  0  0  0  0
   32.6246   36.4646   59.2859 H   0  0  0  0  0  0  0  0  0  0  0  0
   33.4322   36.0526   56.9979 H   0  0  0  0  0  0  0  0  0  0  0  0
  1  2  1  0  0  0  0
  1 19  1  0  0  0  0
  1 20  1  0  0  0  0
  1 21  1  0  0  0  0
  2 18  2  0  0  0  0
  2  3  1  0  0  0  0
  3  4  2  0  0  0  0
  3 22  1  0  0  0  0
  4  5  1  0  0  0  0
  4 23  1  0  0  0  0
  5  6  1  0  0  0  0
  5 17  2  0  0  0  0
  6  7  1  0  0  0  0
  6 24  1  0  0  0  0
  7  8  2  0  0  0  0
  7  9  1  0  0  0  0
  9 10  1  0  0  0  0
  9 25  1  0  0  0  0
  9 26  1  0  0  0  0
 10 11  1  0  0  0  0
 11 15  1  0  0  0  0
 11 12  2  0  0  0  0
 12 13  1  0  0  0  0
 13 14  2  0  0  0  0
 14 15  1  0  0  0  0
 14 27  1  0  0  0  0
 15 16  1  0  0  0  0
 16 28  1  0  0  0  0
 16 29  1  0  0  0  0
 16 30  1  0  0  0  0
 17 18  1  0  0  0  0
 17 31  1  0  0  0  0
 18 32  1  0  0  0  0
M  END
$$$$
