ZINC000000009192      none
 OpenBabel11202420153D

 22 22  0  0  0  0  0  0  0  0999 V2000
   36.0921   40.2978   51.1605 C   0  0  0  0  0  0  0  0  0  0  0  0
   35.5596   39.6617   52.3240 O   0  0  0  0  0  0  0  0  0  0  0  0
   35.1775   40.4632   53.3397 C   0  0  0  0  0  0  0  0  0  0  0  0
   35.2938   41.6697   53.2389 O   0  0  0  0  0  0  0  0  0  0  0  0
   34.6350   39.8935   54.5363 C   0  0  0  0  0  0  0  0  0  0  0  0
   34.1904   39.4265   55.5173 C   0  0  0  0  0  0  0  0  0  0  0  0
   33.6479   38.8568   56.7139 C   0  0  0  0  0  0  0  0  0  0  0  0
   33.2560   39.6842   57.7713 C   0  0  0  0  0  0  0  0  0  0  0  0
   32.7306   39.1284   58.9185 C   0  0  0  0  0  0  0  0  0  0  0  0
   32.5995   37.7549   59.0291 C   0  0  0  0  0  0  0  0  0  0  0  0
   32.0394   37.1661   60.2662 N   0  0  0  0  0  0  0  0  0  0  0  0
   31.6952   37.8897   61.1834 O   0  0  0  0  0  0  0  0  0  0  0  0
   31.9226   35.9579   60.3669 O   0  0  0  0  0  0  0  0  0  0  0  0
   32.9900   36.9292   57.9892 C   0  0  0  0  0  0  0  0  0  0  0  0
   33.5127   37.4700   56.8336 C   0  0  0  0  0  0  0  0  0  0  0  0
   36.3591   39.5411   50.4228 H   0  0  0  0  0  0  0  0  0  0  0  0
   35.3438   40.9686   50.7385 H   0  0  0  0  0  0  0  0  0  0  0  0
   36.9797   40.8688   51.4329 H   0  0  0  0  0  0  0  0  0  0  0  0
   33.3616   40.7558   57.6881 H   0  0  0  0  0  0  0  0  0  0  0  0
   32.4245   39.7660   59.7346 H   0  0  0  0  0  0  0  0  0  0  0  0
   32.8846   35.8585   58.0830 H   0  0  0  0  0  0  0  0  0  0  0  0
   33.8172   36.8245   56.0231 H   0  0  0  0  0  0  0  0  0  0  0  0
  1  2  1  0  0  0  0
  1 16  1  0  0  0  0
  1 17  1  0  0  0  0
  1 18  1  0  0  0  0
  2  3  1  0  0  0  0
  3  4  2  0  0  0  0
  3  5  1  0  0  0  0
  5  6  3  0  0  0  0
  6  7  1  0  0  0  0
  7 15  2  0  0  0  0
  7  8  1  0  0  0  0
  8  9  2  0  0  0  0
  8 19  1  0  0  0  0
  9 10  1  0  0  0  0
  9 20  1  0  0  0  0
 10 11  1  0  0  0  0
 10 14  2  0  0  0  0
 11 12  2  0  0  0  0
 11 13  2  0  0  0  0
 14 15  1  0  0  0  0
 14 21  1  0  0  0  0
 15 22  1  0  0  0  0
M  END
$$$$
