ZINC000000032363      none
 OpenBabel11202420153D

 29 30  0  0  0  0  0  0  0  0999 V2000
   31.1882   37.6682   62.7593 C   0  0  0  0  0  0  0  0  0  0  0  0
   31.5991   36.9512   61.5654 O   0  0  0  0  0  0  0  0  0  0  0  0
   31.8790   37.6900   60.4741 C   0  0  0  0  0  0  0  0  0  0  0  0
   31.7824   38.9003   60.5187 O   0  0  0  0  0  0  0  0  0  0  0  0
   32.3030   37.0292   59.2244 C   0  0  0  0  0  0  0  0  0  0  0  0
   32.6253   37.6661   58.0022 C   0  0  0  0  0  0  0  0  0  0  0  0
   32.9597   36.6679   57.1514 C   0  0  0  0  0  0  0  0  0  0  0  0
   32.8365   35.5062   57.8290 N   0  0  0  0  0  0  0  0  0  0  0  0
   33.1041   34.1784   57.2709 C   0  0  0  0  0  0  0  0  0  0  0  0
   34.3270   34.2097   56.5324 O   0  0  0  0  0  0  0  0  0  0  0  0
   34.4347   33.3557   55.4808 C   0  0  0  0  0  0  0  0  0  0  0  0
   34.9557   32.0838   55.6692 C   0  0  0  0  0  0  0  0  0  0  0  0
   35.0593   31.2156   54.5996 C   0  0  0  0  0  0  0  0  0  0  0  0
   34.6540   31.6173   53.3400 C   0  0  0  0  0  0  0  0  0  0  0  0
   34.1397   32.8863   53.1486 C   0  0  0  0  0  0  0  0  0  0  0  0
   34.0291   33.7563   54.2160 C   0  0  0  0  0  0  0  0  0  0  0  0
   32.4500   35.7329   59.0330 N   0  0  0  0  0  0  0  0  0  0  0  0
   30.2811   38.2348   62.5487 H   0  0  0  0  0  0  0  0  0  0  0  0
   30.9939   36.9567   63.5618 H   0  0  0  0  0  0  0  0  0  0  0  0
   31.9810   38.3516   63.0636 H   0  0  0  0  0  0  0  0  0  0  0  0
   32.6120   38.7257   57.7937 H   0  0  0  0  0  0  0  0  0  0  0  0
   33.2680   36.7797   56.1224 H   0  0  0  0  0  0  0  0  0  0  0  0
   33.1873   33.4540   58.0811 H   0  0  0  0  0  0  0  0  0  0  0  0
   32.2871   33.8910   56.6091 H   0  0  0  0  0  0  0  0  0  0  0  0
   35.2762   31.7712   56.6519 H   0  0  0  0  0  0  0  0  0  0  0  0
   35.4607   30.2239   54.7464 H   0  0  0  0  0  0  0  0  0  0  0  0
   34.7396   30.9386   52.5042 H   0  0  0  0  0  0  0  0  0  0  0  0
   33.8244   33.1979   52.1638 H   0  0  0  0  0  0  0  0  0  0  0  0
   33.6278   34.7477   54.0658 H   0  0  0  0  0  0  0  0  0  0  0  0
  1  2  1  0  0  0  0
  1 18  1  0  0  0  0
  1 19  1  0  0  0  0
  1 20  1  0  0  0  0
  2  3  1  0  0  0  0
  3  4  2  0  0  0  0
  3  5  1  0  0  0  0
  5 17  2  0  0  0  0
  5  6  1  0  0  0  0
  6  7  2  0  0  0  0
  6 21  1  0  0  0  0
  7  8  1  0  0  0  0
  7 22  1  0  0  0  0
  8  9  1  0  0  0  0
  8 17  1  0  0  0  0
  9 10  1  0  0  0  0
  9 23  1  0  0  0  0
  9 24  1  0  0  0  0
 10 11  1  0  0  0  0
 11 16  2  0  0  0  0
 11 12  1  0  0  0  0
 12 13  2  0  0  0  0
 12 25  1  0  0  0  0
 13 14  1  0  0  0  0
 13 26  1  0  0  0  0
 14 15  2  0  0  0  0
 14 27  1  0  0  0  0
 15 16  1  0  0  0  0
 15 28  1  0  0  0  0
 16 29  1  0  0  0  0
M  END
$$$$
