ZINC000000043852      none
 OpenBabel11202420153D

 25 25  0  0  0  0  0  0  0  0999 V2000
   33.3669   39.9898   57.7031 C   0  0  0  0  0  0  0  0  0  0  0  0
   33.2502   38.5738   57.5494 O   0  0  0  0  0  0  0  0  0  0  0  0
   32.7948   37.8720   58.6216 C   0  0  0  0  0  0  0  0  0  0  0  0
   32.4731   38.5311   59.7972 C   0  0  0  0  0  0  0  0  0  0  0  0
   32.0063   37.8166   60.8847 C   0  0  0  0  0  0  0  0  0  0  0  0
   31.8682   36.4433   60.8058 C   0  0  0  0  0  0  0  0  0  0  0  0
   31.2785   35.5377   62.1974 S   0  0  0  0  0  0  0  0  0  0  0  0
   31.2370   33.9406   61.7612 N   0  0  0  0  0  0  0  0  0  0  0  0
   32.2756   35.6531   63.2031 O   0  0  0  0  0  0  0  0  0  0  0  0
   29.9283   35.9356   62.3923 O   0  0  0  0  0  0  0  0  0  0  0  0
   32.1924   35.7789   59.6377 C   0  0  0  0  0  0  0  0  0  0  0  0
   32.6563   36.4896   58.5424 C   0  0  0  0  0  0  0  0  0  0  0  0
   32.9753   35.8377   57.3922 O   0  0  0  0  0  0  0  0  0  0  0  0
   32.8081   34.4185   57.3833 C   0  0  0  0  0  0  0  0  0  0  0  0
   32.3892   40.4118   57.9356 H   0  0  0  0  0  0  0  0  0  0  0  0
   34.0605   40.2113   58.5142 H   0  0  0  0  0  0  0  0  0  0  0  0
   33.7400   40.4262   56.7766 H   0  0  0  0  0  0  0  0  0  0  0  0
   32.5836   39.6034   59.8628 H   0  0  0  0  0  0  0  0  0  0  0  0
   31.7527   38.3319   61.7993 H   0  0  0  0  0  0  0  0  0  0  0  0
   31.3700   33.2515   62.4307 H   0  0  0  0  0  0  0  0  0  0  0  0
   31.0796   33.6944   60.8363 H   0  0  0  0  0  0  0  0  0  0  0  0
   32.0837   34.7060   59.5786 H   0  0  0  0  0  0  0  0  0  0  0  0
   33.4356   33.9738   58.1557 H   0  0  0  0  0  0  0  0  0  0  0  0
   31.7638   34.1744   57.5784 H   0  0  0  0  0  0  0  0  0  0  0  0
   33.0973   34.0248   56.4088 H   0  0  0  0  0  0  0  0  0  0  0  0
  1  2  1  0  0  0  0
  1 15  1  0  0  0  0
  1 16  1  0  0  0  0
  1 17  1  0  0  0  0
  2  3  1  0  0  0  0
  3 12  2  0  0  0  0
  3  4  1  0  0  0  0
  4  5  2  0  0  0  0
  4 18  1  0  0  0  0
  5  6  1  0  0  0  0
  5 19  1  0  0  0  0
  6  7  1  0  0  0  0
  6 11  2  0  0  0  0
  7  8  1  0  0  0  0
  7  9  2  0  0  0  0
  7 10  2  0  0  0  0
  8 20  1  0  0  0  0
  8 21  1  0  0  0  0
 11 12  1  0  0  0  0
 11 22  1  0  0  0  0
 12 13  1  0  0  0  0
 13 14  1  0  0  0  0
 14 23  1  0  0  0  0
 14 24  1  0  0  0  0
 14 25  1  0  0  0  0
M  END
$$$$
