ZINC000000039026      none
 OpenBabel11202420153D

 24 25  0  0  0  0  0  0  0  0999 V2000
   35.2248   40.4184   51.9139 C   0  0  0  0  0  0  0  0  0  0  0  0
   35.3438   39.2449   52.7207 O   0  0  0  0  0  0  0  0  0  0  0  0
   34.8849   39.3239   53.9918 C   0  0  0  0  0  0  0  0  0  0  0  0
   34.8554   40.3994   54.7395 N   0  0  0  0  0  0  0  0  0  0  0  0
   34.3555   40.1090   55.8888 N   0  0  0  0  0  0  0  0  0  0  0  0
   34.0464   38.8355   55.9190 C   0  0  0  0  0  0  0  0  0  0  0  0
   33.4490   38.1064   57.0574 C   0  0  0  0  0  0  0  0  0  0  0  0
   33.1706   36.7427   56.9481 C   0  0  0  0  0  0  0  0  0  0  0  0
   32.6125   36.0684   58.0142 C   0  0  0  0  0  0  0  0  0  0  0  0
   32.3289   36.7416   59.1907 C   0  0  0  0  0  0  0  0  0  0  0  0
   32.6072   38.0906   59.3068 C   0  0  0  0  0  0  0  0  0  0  0  0
   33.1601   38.7784   58.2461 C   0  0  0  0  0  0  0  0  0  0  0  0
   33.4573   40.2503   58.3730 C   0  0  0  0  0  0  0  0  0  0  0  0
   34.3802   38.3114   54.7198 O   0  0  0  0  0  0  0  0  0  0  0  0
   34.1741   40.6961   51.8294 H   0  0  0  0  0  0  0  0  0  0  0  0
   35.7803   41.2346   52.3756 H   0  0  0  0  0  0  0  0  0  0  0  0
   35.6290   40.2193   50.9215 H   0  0  0  0  0  0  0  0  0  0  0  0
   33.3913   36.2171   56.0309 H   0  0  0  0  0  0  0  0  0  0  0  0
   32.3966   35.0135   57.9310 H   0  0  0  0  0  0  0  0  0  0  0  0
   31.8910   36.2081   60.0214 H   0  0  0  0  0  0  0  0  0  0  0  0
   32.3874   38.6083   60.2287 H   0  0  0  0  0  0  0  0  0  0  0  0
   32.5891   40.8253   58.0508 H   0  0  0  0  0  0  0  0  0  0  0  0
   34.3132   40.5035   57.7473 H   0  0  0  0  0  0  0  0  0  0  0  0
   33.6844   40.4868   59.4126 H   0  0  0  0  0  0  0  0  0  0  0  0
  1  2  1  0  0  0  0
  1 15  1  0  0  0  0
  1 16  1  0  0  0  0
  1 17  1  0  0  0  0
  2  3  1  0  0  0  0
  3 14  1  0  0  0  0
  3  4  2  0  0  0  0
  4  5  1  0  0  0  0
  5  6  2  0  0  0  0
  6  7  1  0  0  0  0
  6 14  1  0  0  0  0
  7 12  2  0  0  0  0
  7  8  1  0  0  0  0
  8  9  2  0  0  0  0
  8 18  1  0  0  0  0
  9 10  1  0  0  0  0
  9 19  1  0  0  0  0
 10 11  2  0  0  0  0
 10 20  1  0  0  0  0
 11 12  1  0  0  0  0
 11 21  1  0  0  0  0
 12 13  1  0  0  0  0
 13 22  1  0  0  0  0
 13 23  1  0  0  0  0
 13 24  1  0  0  0  0
M  END
$$$$
