ZINC000000051812      none
 OpenBabel11202420153D

 29 30  0  0  0  0  0  0  0  0999 V2000
   33.3658   37.3347   56.0626 C   0  0  0  0  0  0  0  0  0  0  0  0
   33.0033   37.4672   57.5193 C   0  0  0  0  0  0  0  0  0  0  0  0
   33.0865   38.6993   58.1416 C   0  0  0  0  0  0  0  0  0  0  0  0
   32.7491   38.8253   59.4750 C   0  0  0  0  0  0  0  0  0  0  0  0
   32.3314   37.7118   60.1923 C   0  0  0  0  0  0  0  0  0  0  0  0
   31.9886   37.8362   61.5425 N   0  0  0  0  0  0  0  0  0  0  0  0
   32.1685   36.7972   62.3819 C   0  0  0  0  0  0  0  0  0  0  0  0
   32.6288   35.7511   61.9650 O   0  0  0  0  0  0  0  0  0  0  0  0
   31.8081   36.9279   63.8015 C   0  0  0  0  0  0  0  0  0  0  0  0
   30.5105   37.2097   64.1822 C   0  0  0  0  0  0  0  0  0  0  0  0
   30.2146   37.3233   65.5031 N   0  0  0  0  0  0  0  0  0  0  0  0
   29.3031   37.5212   65.7693 H   0  0  0  0  0  0  0  0  0  0  0  0
   31.1549   37.1684   66.4483 C   0  0  0  0  0  0  0  0  0  0  0  0
   30.8387   37.2809   67.6166 O   0  0  0  0  0  0  0  0  0  0  0  0
   32.4350   36.8933   66.1448 N   0  0  0  0  0  0  0  0  0  0  0  0
   33.0867   36.7878   66.8555 H   0  0  0  0  0  0  0  0  0  0  0  0
   32.8184   36.7563   64.8579 C   0  0  0  0  0  0  0  0  0  0  0  0
   33.9747   36.5023   64.5772 O   0  0  0  0  0  0  0  0  0  0  0  0
   32.2544   36.4748   59.5658 C   0  0  0  0  0  0  0  0  0  0  0  0
   32.5932   36.3555   58.2321 C   0  0  0  0  0  0  0  0  0  0  0  0
   34.4276   37.1054   55.9718 H   0  0  0  0  0  0  0  0  0  0  0  0
   32.7810   36.5314   55.6143 H   0  0  0  0  0  0  0  0  0  0  0  0
   33.1511   38.2713   55.5481 H   0  0  0  0  0  0  0  0  0  0  0  0
   33.4114   39.5648   57.5832 H   0  0  0  0  0  0  0  0  0  0  0  0
   32.8097   39.7888   59.9592 H   0  0  0  0  0  0  0  0  0  0  0  0
   31.6215   38.6702   61.8749 H   0  0  0  0  0  0  0  0  0  0  0  0
   29.7392   37.3388   63.4372 H   0  0  0  0  0  0  0  0  0  0  0  0
   31.9302   35.6068   60.1208 H   0  0  0  0  0  0  0  0  0  0  0  0
   32.5336   35.3938   57.7444 H   0  0  0  0  0  0  0  0  0  0  0  0
  1  2  1  0  0  0  0
  1 21  1  0  0  0  0
  1 22  1  0  0  0  0
  1 23  1  0  0  0  0
  2 20  2  0  0  0  0
  2  3  1  0  0  0  0
  3  4  2  0  0  0  0
  3 24  1  0  0  0  0
  4  5  1  0  0  0  0
  4 25  1  0  0  0  0
  5  6  1  0  0  0  0
  5 19  2  0  0  0  0
  6  7  1  0  0  0  0
  6 26  1  0  0  0  0
  7  8  2  0  0  0  0
  7  9  1  0  0  0  0
  9 17  1  0  0  0  0
  9 10  2  0  0  0  0
 10 11  1  0  0  0  0
 10 27  1  0  0  0  0
 11 12  1  0  0  0  0
 11 13  1  0  0  0  0
 13 14  2  0  0  0  0
 13 15  1  0  0  0  0
 15 16  1  0  0  0  0
 15 17  1  0  0  0  0
 17 18  2  0  0  0  0
 19 20  1  0  0  0  0
 19 28  1  0  0  0  0
 20 29  1  0  0  0  0
M  END
$$$$
