ZINC000000020442      none
 OpenBabel11202420153D

 23 24  0  0  0  0  0  0  0  0999 V2000
   33.4584   33.2505   55.7620 C   0  0  0  0  0  0  0  0  0  0  0  0
   33.3918   34.6441   56.3317 C   0  0  0  0  0  0  0  0  0  0  0  0
   33.7766   35.6339   55.5848 N   0  0  0  0  0  0  0  0  0  0  0  0
   33.7449   36.9149   56.0299 C   0  0  0  0  0  0  0  0  0  0  0  0
   34.1583   37.9800   55.2269 C   0  0  0  0  0  0  0  0  0  0  0  0
   34.6559   37.7245   53.8275 C   0  0  0  0  0  0  0  0  0  0  0  0
   34.1087   39.2645   55.7195 C   0  0  0  0  0  0  0  0  0  0  0  0
   33.6516   39.5159   57.0066 C   0  0  0  0  0  0  0  0  0  0  0  0
   33.2385   38.4818   57.8179 C   0  0  0  0  0  0  0  0  0  0  0  0
   33.2812   37.1742   57.3386 C   0  0  0  0  0  0  0  0  0  0  0  0
   32.8529   36.0309   58.1582 C   0  0  0  0  0  0  0  0  0  0  0  0
   32.4433   36.1853   59.2941 O   0  0  0  0  0  0  0  0  0  0  0  0
   32.9325   34.8001   57.6007 N   0  0  0  0  0  0  0  0  0  0  0  0
   32.6589   34.0225   58.1118 H   0  0  0  0  0  0  0  0  0  0  0  0
   33.8449   33.2925   54.7436 H   0  0  0  0  0  0  0  0  0  0  0  0
   34.1184   32.6380   56.3761 H   0  0  0  0  0  0  0  0  0  0  0  0
   32.4600   32.8132   55.7538 H   0  0  0  0  0  0  0  0  0  0  0  0
   35.7335   37.5622   53.8491 H   0  0  0  0  0  0  0  0  0  0  0  0
   34.1634   36.8404   53.4226 H   0  0  0  0  0  0  0  0  0  0  0  0
   34.4307   38.5860   53.1988 H   0  0  0  0  0  0  0  0  0  0  0  0
   34.4287   40.0871   55.0971 H   0  0  0  0  0  0  0  0  0  0  0  0
   33.6242   40.5302   57.3765 H   0  0  0  0  0  0  0  0  0  0  0  0
   32.8844   38.6833   58.8182 H   0  0  0  0  0  0  0  0  0  0  0  0
  1  2  1  0  0  0  0
  1 15  1  0  0  0  0
  1 16  1  0  0  0  0
  1 17  1  0  0  0  0
  2 13  1  0  0  0  0
  2  3  2  0  0  0  0
  3  4  1  0  0  0  0
  4 10  2  0  0  0  0
  4  5  1  0  0  0  0
  5  6  1  0  0  0  0
  5  7  2  0  0  0  0
  6 18  1  0  0  0  0
  6 19  1  0  0  0  0
  6 20  1  0  0  0  0
  7  8  1  0  0  0  0
  7 21  1  0  0  0  0
  8  9  2  0  0  0  0
  8 22  1  0  0  0  0
  9 10  1  0  0  0  0
  9 23  1  0  0  0  0
 10 11  1  0  0  0  0
 11 12  2  0  0  0  0
 11 13  1  0  0  0  0
 13 14  1  0  0  0  0
M  END
$$$$
