ZINC000000029899      none
 OpenBabel11202420163D

 32 32  0  0  0  0  0  0  0  0999 V2000
   32.1030   37.8283   59.0872 C   0  0  0  0  0  0  0  0  0  0  0  0
   31.4573   38.5130   60.1626 O   0  0  0  0  0  0  0  0  0  0  0  0
   31.1594   37.7829   61.2672 C   0  0  0  0  0  0  0  0  0  0  0  0
   30.5351   38.3911   62.3524 C   0  0  0  0  0  0  0  0  0  0  0  0
   30.2297   37.6586   63.4757 C   0  0  0  0  0  0  0  0  0  0  0  0
   30.5469   36.2976   63.5298 C   0  0  0  0  0  0  0  0  0  0  0  0
   30.2220   35.5096   64.7311 C   0  0  0  0  0  0  0  0  0  0  0  0
   29.4781   34.5512   64.6469 O   0  0  0  0  0  0  0  0  0  0  0  0
   30.7492   35.8507   65.9237 N   0  0  0  0  0  0  0  0  0  0  0  0
   30.4262   35.0670   67.1184 C   0  0  0  0  0  0  0  0  0  0  0  0
   29.7764   35.9349   68.1139 C   0  0  0  0  0  0  0  0  0  0  0  0
   29.2748   36.6050   68.8821 N   0  0  0  0  0  0  0  0  0  0  0  0
   31.6454   37.0052   66.0251 C   0  0  0  0  0  0  0  0  0  0  0  0
   32.8204   36.7913   65.1649 C   0  0  0  0  0  0  0  0  0  0  0  0
   33.7274   36.6263   64.5008 N   0  0  0  0  0  0  0  0  0  0  0  0
   31.1763   35.6859   62.4351 C   0  0  0  0  0  0  0  0  0  0  0  0
   31.4880   34.3663   62.4792 O   0  0  0  0  0  0  0  0  0  0  0  0
   32.1276   33.8121   61.3278 C   0  0  0  0  0  0  0  0  0  0  0  0
   31.4833   36.4351   61.3122 C   0  0  0  0  0  0  0  0  0  0  0  0
   33.0527   37.4209   59.4339 H   0  0  0  0  0  0  0  0  0  0  0  0
   31.4651   37.0163   58.7383 H   0  0  0  0  0  0  0  0  0  0  0  0
   32.2838   38.5256   58.2691 H   0  0  0  0  0  0  0  0  0  0  0  0
   30.2898   39.4421   62.3123 H   0  0  0  0  0  0  0  0  0  0  0  0
   29.7455   38.1343   64.3158 H   0  0  0  0  0  0  0  0  0  0  0  0
   29.7512   34.2548   66.8487 H   0  0  0  0  0  0  0  0  0  0  0  0
   31.3422   34.6531   67.5401 H   0  0  0  0  0  0  0  0  0  0  0  0
   31.1183   37.9035   65.7036 H   0  0  0  0  0  0  0  0  0  0  0  0
   31.9689   37.1243   67.0592 H   0  0  0  0  0  0  0  0  0  0  0  0
   32.3209   32.7524   61.4945 H   0  0  0  0  0  0  0  0  0  0  0  0
   33.0704   34.3300   61.1513 H   0  0  0  0  0  0  0  0  0  0  0  0
   31.4796   33.9310   60.4596 H   0  0  0  0  0  0  0  0  0  0  0  0
   31.9717   35.9690   60.4693 H   0  0  0  0  0  0  0  0  0  0  0  0
  1  2  1  0  0  0  0
  1 20  1  0  0  0  0
  1 21  1  0  0  0  0
  1 22  1  0  0  0  0
  2  3  1  0  0  0  0
  3 19  2  0  0  0  0
  3  4  1  0  0  0  0
  4  5  2  0  0  0  0
  4 23  1  0  0  0  0
  5  6  1  0  0  0  0
  5 24  1  0  0  0  0
  6  7  1  0  0  0  0
  6 16  2  0  0  0  0
  7  8  2  0  0  0  0
  7  9  1  0  0  0  0
  9 10  1  0  0  0  0
  9 13  1  0  0  0  0
 10 11  1  0  0  0  0
 10 25  1  0  0  0  0
 10 26  1  0  0  0  0
 11 12  3  0  0  0  0
 13 14  1  0  0  0  0
 13 27  1  0  0  0  0
 13 28  1  0  0  0  0
 14 15  3  0  0  0  0
 16 17  1  0  0  0  0
 16 19  1  0  0  0  0
 17 18  1  0  0  0  0
 18 29  1  0  0  0  0
 18 30  1  0  0  0  0
 18 31  1  0  0  0  0
 19 32  1  0  0  0  0
M  END
$$$$
