ZINC000000011610      none
 OpenBabel11202420153D

 26 28  0  0  0  0  0  0  0  0999 V2000
   33.6328   37.3389   55.5032 C   0  0  0  0  0  0  0  0  0  0  0  0
   33.2278   36.6582   56.7853 C   0  0  0  0  0  0  0  0  0  0  0  0
   32.8237   37.2592   57.8761 N   0  0  0  0  0  0  0  0  0  0  0  0
   32.5374   36.2959   58.8507 N   0  0  0  0  0  0  0  0  0  0  0  0
   32.1005   36.1087   60.1517 C   0  0  0  0  0  0  0  0  0  0  0  0
   32.0782   34.8039   60.4081 C   0  0  0  0  0  0  0  0  0  0  0  0
   32.4993   34.1311   59.2776 N   0  0  0  0  0  0  0  0  0  0  0  0
   32.5808   33.1693   59.1805 H   0  0  0  0  0  0  0  0  0  0  0  0
   32.7823   35.0712   58.3145 C   0  0  0  0  0  0  0  0  0  0  0  0
   33.2142   35.2722   57.0098 C   0  0  0  0  0  0  0  0  0  0  0  0
   33.5933   34.2201   56.0369 C   0  0  0  0  0  0  0  0  0  0  0  0
   34.6429   33.3479   56.3228 C   0  0  0  0  0  0  0  0  0  0  0  0
   34.9876   32.3668   55.4158 C   0  0  0  0  0  0  0  0  0  0  0  0
   34.3015   32.2545   54.2200 C   0  0  0  0  0  0  0  0  0  0  0  0
   33.2630   33.1211   53.9279 C   0  0  0  0  0  0  0  0  0  0  0  0
   32.9055   34.1025   54.8298 C   0  0  0  0  0  0  0  0  0  0  0  0
   34.7016   37.5516   55.5267 H   0  0  0  0  0  0  0  0  0  0  0  0
   33.4108   36.6858   54.6592 H   0  0  0  0  0  0  0  0  0  0  0  0
   33.0790   38.2717   55.3964 H   0  0  0  0  0  0  0  0  0  0  0  0
   31.8248   36.8917   60.8426 H   0  0  0  0  0  0  0  0  0  0  0  0
   31.7815   34.3481   61.3411 H   0  0  0  0  0  0  0  0  0  0  0  0
   35.1823   33.4373   57.2542 H   0  0  0  0  0  0  0  0  0  0  0  0
   35.7975   31.6877   55.6381 H   0  0  0  0  0  0  0  0  0  0  0  0
   34.5783   31.4890   53.5104 H   0  0  0  0  0  0  0  0  0  0  0  0
   32.7310   33.0290   52.9927 H   0  0  0  0  0  0  0  0  0  0  0  0
   32.0945   34.7779   54.6011 H   0  0  0  0  0  0  0  0  0  0  0  0
  1  2  1  0  0  0  0
  1 17  1  0  0  0  0
  1 18  1  0  0  0  0
  1 19  1  0  0  0  0
  2 10  1  0  0  0  0
  2  3  2  0  0  0  0
  3  4  1  0  0  0  0
  4  9  1  0  0  0  0
  4  5  1  0  0  0  0
  5  6  2  0  0  0  0
  5 20  1  0  0  0  0
  6  7  1  0  0  0  0
  6 21  1  0  0  0  0
  7  8  1  0  0  0  0
  7  9  1  0  0  0  0
  9 10  2  0  0  0  0
 10 11  1  0  0  0  0
 11 16  2  0  0  0  0
 11 12  1  0  0  0  0
 12 13  2  0  0  0  0
 12 22  1  0  0  0  0
 13 14  1  0  0  0  0
 13 23  1  0  0  0  0
 14 15  2  0  0  0  0
 14 24  1  0  0  0  0
 15 16  1  0  0  0  0
 15 25  1  0  0  0  0
 16 26  1  0  0  0  0
M  END
$$$$
