ZINC000000012764      none
 OpenBabel11202420153D

 30 32  0  0  0  0  0  0  0  0999 V2000
   34.2992   37.3453   53.9473 O   0  0  0  0  0  0  0  0  0  0  0  0
   34.0577   37.9669   54.9649 C   0  0  0  0  0  0  0  0  0  0  0  0
   33.5882   37.2605   56.1620 C   0  0  0  0  0  0  0  0  0  0  0  0
   32.7761   37.8839   57.0365 C   0  0  0  0  0  0  0  0  0  0  0  0
   32.3043   37.1742   58.2390 C   0  0  0  0  0  0  0  0  0  0  0  0
   31.4519   37.8381   59.1394 C   0  0  0  0  0  0  0  0  0  0  0  0
   31.0091   37.1918   60.2550 C   0  0  0  0  0  0  0  0  0  0  0  0
   31.4278   35.8634   60.4680 C   0  0  0  0  0  0  0  0  0  0  0  0
   31.0090   35.1402   61.5956 C   0  0  0  0  0  0  0  0  0  0  0  0
   31.4332   33.8579   61.7695 C   0  0  0  0  0  0  0  0  0  0  0  0
   32.2792   33.2516   60.8423 C   0  0  0  0  0  0  0  0  0  0  0  0
   32.7051   33.9215   59.7377 C   0  0  0  0  0  0  0  0  0  0  0  0
   32.2886   35.2491   59.5220 C   0  0  0  0  0  0  0  0  0  0  0  0
   32.6872   35.9263   58.4448 N   0  0  0  0  0  0  0  0  0  0  0  0
   34.2214   39.3045   54.9925 N   0  0  0  0  0  0  0  0  0  0  0  0
   34.6686   39.9775   53.8519 C   0  0  0  0  0  0  0  0  0  0  0  0
   34.9688   39.4238   52.6762 N   0  0  0  0  0  0  0  0  0  0  0  0
   35.3478   40.3322   51.8489 N   0  0  0  0  0  0  0  0  0  0  0  0
   35.3143   41.4848   52.4259 N   0  0  0  0  0  0  0  0  0  0  0  0
   35.5503   42.3366   52.0265 H   0  0  0  0  0  0  0  0  0  0  0  0
   34.8709   41.2740   53.7419 N   0  0  0  0  0  0  0  0  0  0  0  0
   33.8939   36.2404   56.3416 H   0  0  0  0  0  0  0  0  0  0  0  0
   32.4704   38.9041   56.8566 H   0  0  0  0  0  0  0  0  0  0  0  0
   31.1487   38.8567   58.9474 H   0  0  0  0  0  0  0  0  0  0  0  0
   30.3545   37.6855   60.9580 H   0  0  0  0  0  0  0  0  0  0  0  0
   30.3542   35.5984   62.3218 H   0  0  0  0  0  0  0  0  0  0  0  0
   31.1098   33.3031   62.6378 H   0  0  0  0  0  0  0  0  0  0  0  0
   32.6015   32.2335   61.0034 H   0  0  0  0  0  0  0  0  0  0  0  0
   33.3600   33.4369   59.0286 H   0  0  0  0  0  0  0  0  0  0  0  0
   34.0289   39.8000   55.8038 H   0  0  0  0  0  0  0  0  0  0  0  0
  1  2  2  0  0  0  0
  2  3  1  0  0  0  0
  2 15  1  0  0  0  0
  3  4  2  0  0  0  0
  3 22  1  0  0  0  0
  4  5  1  0  0  0  0
  4 23  1  0  0  0  0
  5 14  2  0  0  0  0
  5  6  1  0  0  0  0
  6  7  2  0  0  0  0
  6 24  1  0  0  0  0
  7  8  1  0  0  0  0
  7 25  1  0  0  0  0
  8 13  2  0  0  0  0
  8  9  1  0  0  0  0
  9 10  2  0  0  0  0
  9 26  1  0  0  0  0
 10 11  1  0  0  0  0
 10 27  1  0  0  0  0
 11 12  2  0  0  0  0
 11 28  1  0  0  0  0
 12 13  1  0  0  0  0
 12 29  1  0  0  0  0
 13 14  1  0  0  0  0
 15 16  1  0  0  0  0
 15 30  1  0  0  0  0
 16 21  2  0  0  0  0
 16 17  1  0  0  0  0
 17 18  2  0  0  0  0
 18 19  1  0  0  0  0
 19 20  1  0  0  0  0
 19 21  1  0  0  0  0
M  END
$$$$
