ZINC000000052349      none
 OpenBabel11202420153D

 21 22  0  0  0  0  0  0  0  0999 V2000
   31.6459   38.2869   62.2463 N   0  0  0  0  0  0  0  0  0  0  0  0
   31.9712   38.1461   61.1671 C   0  0  0  0  0  0  0  0  0  0  0  0
   32.3815   37.9688   59.8066 C   0  0  0  0  0  0  0  0  0  0  0  0
   32.3010   36.7736   59.0528 C   0  0  0  0  0  0  0  0  0  0  0  0
   32.7645   37.0079   57.8580 N   0  0  0  0  0  0  0  0  0  0  0  0
   33.1646   38.3458   57.7719 N   0  0  0  0  0  0  0  0  0  0  0  0
   33.6921   38.9439   56.6854 C   0  0  0  0  0  0  0  0  0  0  0  0
   34.0038   40.1189   56.7291 O   0  0  0  0  0  0  0  0  0  0  0  0
   33.8898   38.1799   55.4533 C   0  0  0  0  0  0  0  0  0  0  0  0
   34.8654   38.4127   54.5226 C   0  0  0  0  0  0  0  0  0  0  0  0
   34.8230   37.5409   53.4618 C   0  0  0  0  0  0  0  0  0  0  0  0
   33.8425   36.6307   53.5131 C   0  0  0  0  0  0  0  0  0  0  0  0
   32.9069   36.8201   54.9272 S   0  0  0  0  0  0  0  0  0  0  0  0
   32.9286   38.9403   58.9746 C   0  0  0  0  0  0  0  0  0  0  0  0
   33.1832   40.2550   59.3045 N   0  0  0  0  0  0  0  0  0  0  0  0
   31.9196   35.8277   59.4079 H   0  0  0  0  0  0  0  0  0  0  0  0
   35.5977   39.2012   54.6145 H   0  0  0  0  0  0  0  0  0  0  0  0
   35.5265   37.5891   52.6438 H   0  0  0  0  0  0  0  0  0  0  0  0
   33.6670   35.8770   52.7597 H   0  0  0  0  0  0  0  0  0  0  0  0
   32.9767   40.5804   60.1946 H   0  0  0  0  0  0  0  0  0  0  0  0
   33.5688   40.8543   58.6463 H   0  0  0  0  0  0  0  0  0  0  0  0
  1  2  3  0  0  0  0
  2  3  1  0  0  0  0
  3 14  2  0  0  0  0
  3  4  1  0  0  0  0
  4  5  2  0  0  0  0
  4 16  1  0  0  0  0
  5  6  1  0  0  0  0
  6  7  1  0  0  0  0
  6 14  1  0  0  0  0
  7  8  2  0  0  0  0
  7  9  1  0  0  0  0
  9 13  1  0  0  0  0
  9 10  2  0  0  0  0
 10 11  1  0  0  0  0
 10 17  1  0  0  0  0
 11 12  2  0  0  0  0
 11 18  1  0  0  0  0
 12 13  1  0  0  0  0
 12 19  1  0  0  0  0
 14 15  1  0  0  0  0
 15 20  1  0  0  0  0
 15 21  1  0  0  0  0
M  END
$$$$
