ZINC000000036676      none
 OpenBabel11202420153D

 28 29  0  0  0  0  0  0  0  0999 V2000
   32.4490   37.7291   64.9028 N   0  0  0  0  0  0  0  0  0  0  0  0
   32.1726   36.7389   64.0315 C   0  0  0  0  0  0  0  0  0  0  0  0
   33.0780   36.1376   63.4875 O   0  0  0  0  0  0  0  0  0  0  0  0
   30.7670   36.3835   63.7371 C   0  0  0  0  0  0  0  0  0  0  0  0
   30.1142   35.4191   64.4995 C   0  0  0  0  0  0  0  0  0  0  0  0
   28.8004   35.0908   64.2211 C   0  0  0  0  0  0  0  0  0  0  0  0
   28.1262   35.7153   63.1866 C   0  0  0  0  0  0  0  0  0  0  0  0
   28.7577   36.6751   62.4188 C   0  0  0  0  0  0  0  0  0  0  0  0
   30.0815   37.0192   62.6846 C   0  0  0  0  0  0  0  0  0  0  0  0
   30.7616   38.0457   61.8666 C   0  0  0  0  0  0  0  0  0  0  0  0
   30.7132   39.2148   62.1952 O   0  0  0  0  0  0  0  0  0  0  0  0
   31.5002   37.6506   60.6499 C   0  0  0  0  0  0  0  0  0  0  0  0
   31.5628   36.3070   60.2722 C   0  0  0  0  0  0  0  0  0  0  0  0
   32.2495   35.9459   59.1321 C   0  0  0  0  0  0  0  0  0  0  0  0
   32.8848   36.9098   58.3685 C   0  0  0  0  0  0  0  0  0  0  0  0
   32.8317   38.2419   58.7398 C   0  0  0  0  0  0  0  0  0  0  0  0
   32.1441   38.6181   59.8746 C   0  0  0  0  0  0  0  0  0  0  0  0
   31.7264   38.2089   65.3370 H   0  0  0  0  0  0  0  0  0  0  0  0
   33.3707   37.9620   65.0959 H   0  0  0  0  0  0  0  0  0  0  0  0
   30.6353   34.9242   65.3056 H   0  0  0  0  0  0  0  0  0  0  0  0
   28.2974   34.3417   64.8146 H   0  0  0  0  0  0  0  0  0  0  0  0
   27.1001   35.4510   62.9778 H   0  0  0  0  0  0  0  0  0  0  0  0
   28.2252   37.1587   61.6132 H   0  0  0  0  0  0  0  0  0  0  0  0
   31.0713   35.5534   60.8696 H   0  0  0  0  0  0  0  0  0  0  0  0
   32.2953   34.9081   58.8366 H   0  0  0  0  0  0  0  0  0  0  0  0
   33.4247   36.6208   57.4789 H   0  0  0  0  0  0  0  0  0  0  0  0
   33.3297   38.9887   58.1393 H   0  0  0  0  0  0  0  0  0  0  0  0
   32.1038   39.6579   60.1634 H   0  0  0  0  0  0  0  0  0  0  0  0
  1  2  1  0  0  0  0
  1 18  1  0  0  0  0
  1 19  1  0  0  0  0
  2  3  2  0  0  0  0
  2  4  1  0  0  0  0
  4  9  2  0  0  0  0
  4  5  1  0  0  0  0
  5  6  2  0  0  0  0
  5 20  1  0  0  0  0
  6  7  1  0  0  0  0
  6 21  1  0  0  0  0
  7  8  2  0  0  0  0
  7 22  1  0  0  0  0
  8  9  1  0  0  0  0
  8 23  1  0  0  0  0
  9 10  1  0  0  0  0
 10 11  2  0  0  0  0
 10 12  1  0  0  0  0
 12 17  2  0  0  0  0
 12 13  1  0  0  0  0
 13 14  2  0  0  0  0
 13 24  1  0  0  0  0
 14 15  1  0  0  0  0
 14 25  1  0  0  0  0
 15 16  2  0  0  0  0
 15 26  1  0  0  0  0
 16 17  1  0  0  0  0
 16 27  1  0  0  0  0
 17 28  1  0  0  0  0
M  END
$$$$
