ZINC000000025099      none
 OpenBabel11202420153D

 23 23  0  0  1  0  0  0  0  0999 V2000
   33.1991   36.8901   67.1435 C   0  0  0  0  0  0  0  0  0  0  0  0
   33.5538   37.2338   65.6955 C   0  0  0  0  0  0  0  0  0  0  0  0
   32.9802   36.2386   64.8074 O   0  0  0  0  0  0  0  0  0  0  0  0
   31.7381   36.4759   64.3441 C   0  0  0  0  0  0  0  0  0  0  0  0
   30.8123   36.5968   65.1219 O   0  0  0  0  0  0  0  0  0  0  0  0
   31.5218   36.5791   63.0178 N   0  0  0  0  0  0  0  0  0  0  0  0
   32.4924   36.4612   62.0250 N   0  0  0  0  0  0  0  0  0  0  0  0
   32.0526   36.5905   60.8410 C   0  0  0  0  0  0  0  0  0  0  0  0
   30.5618   36.8408   60.8738 C   0  0  0  0  0  0  0  0  0  0  0  0
   30.2198   36.8289   62.3774 C   0  0  2  0  0  0  0  0  0  0  0  0
   29.5185   36.0264   62.6061 H   0  0  0  0  0  0  0  0  0  0  0  0
   29.6545   38.1821   62.8134 C   0  0  0  0  0  0  0  0  0  0  0  0
   33.5995   35.9073   67.3922 H   0  0  0  0  0  0  0  0  0  0  0  0
   33.6296   37.6372   67.8102 H   0  0  0  0  0  0  0  0  0  0  0  0
   32.1153   36.8809   67.2597 H   0  0  0  0  0  0  0  0  0  0  0  0
   34.6376   37.2431   65.5793 H   0  0  0  0  0  0  0  0  0  0  0  0
   33.1534   38.2166   65.4468 H   0  0  0  0  0  0  0  0  0  0  0  0
   32.6531   36.5311   59.9452 H   0  0  0  0  0  0  0  0  0  0  0  0
   30.3268   37.8108   60.4355 H   0  0  0  0  0  0  0  0  0  0  0  0
   30.0285   36.0453   60.3536 H   0  0  0  0  0  0  0  0  0  0  0  0
   30.3581   38.9718   62.5496 H   0  0  0  0  0  0  0  0  0  0  0  0
   28.7045   38.3586   62.3089 H   0  0  0  0  0  0  0  0  0  0  0  0
   29.4982   38.1802   63.8921 H   0  0  0  0  0  0  0  0  0  0  0  0
  1  2  1  0  0  0  0
  1 13  1  0  0  0  0
  1 14  1  0  0  0  0
  1 15  1  0  0  0  0
  2  3  1  0  0  0  0
  2 16  1  0  0  0  0
  2 17  1  0  0  0  0
  3  4  1  0  0  0  0
  4  5  2  0  0  0  0
  4  6  1  0  0  0  0
  6 10  1  0  0  0  0
  6  7  1  0  0  0  0
  7  8  2  0  0  0  0
  8  9  1  0  0  0  0
  8 18  1  0  0  0  0
  9 10  1  0  0  0  0
  9 19  1  0  0  0  0
  9 20  1  0  0  0  0
 10 11  1  1  0  0  0
 10 12  1  0  0  0  0
 12 21  1  0  0  0  0
 12 22  1  0  0  0  0
 12 23  1  0  0  0  0
M  END
$$$$
