ZINC000000056478      none
 OpenBabel11202420153D

 34 35  0  0  0  0  0  0  0  0999 V2000
   33.8590   38.4181   55.6464 C   0  0  0  0  0  0  0  0  0  0  0  0
   33.5402   39.0673   56.8789 O   0  0  0  0  0  0  0  0  0  0  0  0
   33.0686   38.2843   57.8847 C   0  0  0  0  0  0  0  0  0  0  0  0
   32.7446   38.8476   59.1103 C   0  0  0  0  0  0  0  0  0  0  0  0
   32.2614   38.0501   60.1296 C   0  0  0  0  0  0  0  0  0  0  0  0
   32.1100   36.6901   59.9322 C   0  0  0  0  0  0  0  0  0  0  0  0
   31.5876   35.8216   61.0476 C   0  0  0  0  0  0  0  0  0  0  0  0
   32.5630   34.8303   61.3761 O   0  0  0  0  0  0  0  0  0  0  0  0
   31.3095   36.6736   62.2592 C   0  0  0  0  0  0  0  0  0  0  0  0
   30.0619   37.2443   62.4301 C   0  0  0  0  0  0  0  0  0  0  0  0
   29.8027   38.0210   63.5426 C   0  0  0  0  0  0  0  0  0  0  0  0
   30.7992   38.2375   64.4833 C   0  0  0  0  0  0  0  0  0  0  0  0
   30.5487   39.0062   65.5757 O   0  0  0  0  0  0  0  0  0  0  0  0
   29.2366   39.5604   65.6918 C   0  0  0  0  0  0  0  0  0  0  0  0
   32.0521   37.6684   64.3068 C   0  0  0  0  0  0  0  0  0  0  0  0
   32.3044   36.8879   63.1953 C   0  0  0  0  0  0  0  0  0  0  0  0
   32.4367   36.1255   58.7131 C   0  0  0  0  0  0  0  0  0  0  0  0
   32.9159   36.9193   57.6892 C   0  0  0  0  0  0  0  0  0  0  0  0
   34.2234   39.1554   54.9312 H   0  0  0  0  0  0  0  0  0  0  0  0
   34.6304   37.6678   55.8199 H   0  0  0  0  0  0  0  0  0  0  0  0
   32.9662   37.9359   55.2483 H   0  0  0  0  0  0  0  0  0  0  0  0
   32.8668   39.9093   59.2663 H   0  0  0  0  0  0  0  0  0  0  0  0
   32.0058   38.4888   61.0828 H   0  0  0  0  0  0  0  0  0  0  0  0
   30.6671   35.3337   60.7275 H   0  0  0  0  0  0  0  0  0  0  0  0
   32.7913   34.2445   60.6415 H   0  0  0  0  0  0  0  0  0  0  0  0
   29.2878   37.0793   61.6951 H   0  0  0  0  0  0  0  0  0  0  0  0
   28.8267   38.4630   63.6778 H   0  0  0  0  0  0  0  0  0  0  0  0
   29.1711   40.1507   66.6059 H   0  0  0  0  0  0  0  0  0  0  0  0
   29.0344   40.1990   64.8318 H   0  0  0  0  0  0  0  0  0  0  0  0
   28.5035   38.7545   65.7264 H   0  0  0  0  0  0  0  0  0  0  0  0
   32.8293   37.8352   65.0378 H   0  0  0  0  0  0  0  0  0  0  0  0
   33.2796   36.4449   63.0572 H   0  0  0  0  0  0  0  0  0  0  0  0
   32.3176   35.0627   58.5615 H   0  0  0  0  0  0  0  0  0  0  0  0
   33.1716   36.4776   56.7374 H   0  0  0  0  0  0  0  0  0  0  0  0
  1  2  1  0  0  0  0
  1 19  1  0  0  0  0
  1 20  1  0  0  0  0
  1 21  1  0  0  0  0
  2  3  1  0  0  0  0
  3 18  2  0  0  0  0
  3  4  1  0  0  0  0
  4  5  2  0  0  0  0
  4 22  1  0  0  0  0
  5  6  1  0  0  0  0
  5 23  1  0  0  0  0
  6  7  1  0  0  0  0
  6 17  2  0  0  0  0
  7  8  1  0  0  0  0
  7  9  1  0  0  0  0
  7 24  1  0  0  0  0
  8 25  1  0  0  0  0
  9 16  2  0  0  0  0
  9 10  1  0  0  0  0
 10 11  2  0  0  0  0
 10 26  1  0  0  0  0
 11 12  1  0  0  0  0
 11 27  1  0  0  0  0
 12 13  1  0  0  0  0
 12 15  2  0  0  0  0
 13 14  1  0  0  0  0
 14 28  1  0  0  0  0
 14 29  1  0  0  0  0
 14 30  1  0  0  0  0
 15 16  1  0  0  0  0
 15 31  1  0  0  0  0
 16 32  1  0  0  0  0
 17 18  1  0  0  0  0
 17 33  1  0  0  0  0
 18 34  1  0  0  0  0
M  END
$$$$
