ZINC000000035230      none
 OpenBabel11202420153D

 31 33  0  0  0  0  0  0  0  0999 V2000
   32.8247   34.7302   57.2329 C   0  0  0  0  0  0  0  0  0  0  0  0
   32.8327   36.1727   57.6694 C   0  0  0  0  0  0  0  0  0  0  0  0
   33.3194   37.1194   56.8400 C   0  0  0  0  0  0  0  0  0  0  0  0
   33.3383   38.4670   57.2362 C   0  0  0  0  0  0  0  0  0  0  0  0
   32.8531   38.8170   58.4578 C   0  0  0  0  0  0  0  0  0  0  0  0
   32.3483   37.8166   59.3125 C   0  0  0  0  0  0  0  0  0  0  0  0
   31.8290   37.8624   60.5313 N   0  0  0  0  0  0  0  0  0  0  0  0
   31.4963   36.6269   60.9127 C   0  0  0  0  0  0  0  0  0  0  0  0
   30.8755   36.2518   62.2337 C   0  0  0  0  0  0  0  0  0  0  0  0
   31.5749   36.9473   63.3168 N   0  0  0  0  0  0  0  0  0  0  0  0
   31.1475   38.1734   63.7132 C   0  0  0  0  0  0  0  0  0  0  0  0
   31.7740   38.8331   64.7155 C   0  0  0  0  0  0  0  0  0  0  0  0
   32.8834   38.2545   65.3478 C   0  0  0  0  0  0  0  0  0  0  0  0
   33.3148   37.0250   64.9445 C   0  0  0  0  0  0  0  0  0  0  0  0
   32.6378   36.3656   63.9043 C   0  0  0  0  0  0  0  0  0  0  0  0
   33.0132   35.2649   63.5336 O   0  0  0  0  0  0  0  0  0  0  0  0
   31.8090   35.7690   59.9169 C   0  0  0  0  0  0  0  0  0  0  0  0
   32.3483   36.5093   58.9002 N   0  0  0  0  0  0  0  0  0  0  0  0
   33.7591   34.2551   57.5316 H   0  0  0  0  0  0  0  0  0  0  0  0
   31.9879   34.2132   57.7025 H   0  0  0  0  0  0  0  0  0  0  0  0
   32.7214   34.6792   56.1490 H   0  0  0  0  0  0  0  0  0  0  0  0
   33.7001   36.8392   55.8689 H   0  0  0  0  0  0  0  0  0  0  0  0
   33.7324   39.2221   56.5723 H   0  0  0  0  0  0  0  0  0  0  0  0
   32.8586   39.8505   58.7713 H   0  0  0  0  0  0  0  0  0  0  0  0
   29.8243   36.5400   62.2359 H   0  0  0  0  0  0  0  0  0  0  0  0
   30.9573   35.1749   62.3808 H   0  0  0  0  0  0  0  0  0  0  0  0
   30.2957   38.6254   63.2267 H   0  0  0  0  0  0  0  0  0  0  0  0
   31.4220   39.8060   65.0249 H   0  0  0  0  0  0  0  0  0  0  0  0
   33.3908   38.7765   66.1458 H   0  0  0  0  0  0  0  0  0  0  0  0
   34.1678   36.5631   65.4193 H   0  0  0  0  0  0  0  0  0  0  0  0
   31.6610   34.6992   59.9223 H   0  0  0  0  0  0  0  0  0  0  0  0
  1  2  1  0  0  0  0
  1 19  1  0  0  0  0
  1 20  1  0  0  0  0
  1 21  1  0  0  0  0
  2 18  1  0  0  0  0
  2  3  2  0  0  0  0
  3  4  1  0  0  0  0
  3 22  1  0  0  0  0
  4  5  2  0  0  0  0
  4 23  1  0  0  0  0
  5  6  1  0  0  0  0
  5 24  1  0  0  0  0
  6 18  1  0  0  0  0
  6  7  2  0  0  0  0
  7  8  1  0  0  0  0
  8  9  1  0  0  0  0
  8 17  2  0  0  0  0
  9 10  1  0  0  0  0
  9 25  1  0  0  0  0
  9 26  1  0  0  0  0
 10 15  1  0  0  0  0
 10 11  1  0  0  0  0
 11 12  2  0  0  0  0
 11 27  1  0  0  0  0
 12 13  1  0  0  0  0
 12 28  1  0  0  0  0
 13 14  2  0  0  0  0
 13 29  1  0  0  0  0
 14 15  1  0  0  0  0
 14 30  1  0  0  0  0
 15 16  2  0  0  0  0
 17 18  1  0  0  0  0
 17 31  1  0  0  0  0
M  END
$$$$
