ZINC000000034715      none
 OpenBabel11202420153D

 24 25  0  0  0  0  0  0  0  0999 V2000
   33.3211   34.5707   56.2031 C   0  0  0  0  0  0  0  0  0  0  0  0
   33.0233   35.5891   57.2733 C   0  0  0  0  0  0  0  0  0  0  0  0
   32.6194   35.3256   58.4882 N   0  0  0  0  0  0  0  0  0  0  0  0
   32.4563   36.5385   59.1700 N   0  0  0  0  0  0  0  0  0  0  0  0
   32.0511   36.6836   60.4471 C   0  0  0  0  0  0  0  0  0  0  0  0
   31.9476   37.7952   60.9298 O   0  0  0  0  0  0  0  0  0  0  0  0
   31.7354   35.5034   61.2533 C   0  0  0  0  0  0  0  0  0  0  0  0
   32.3057   34.2671   61.1261 C   0  0  0  0  0  0  0  0  0  0  0  0
   31.7091   33.4465   62.0947 C   0  0  0  0  0  0  0  0  0  0  0  0
   30.8125   34.2065   62.7630 C   0  0  0  0  0  0  0  0  0  0  0  0
   30.8350   35.4460   62.2567 O   0  0  0  0  0  0  0  0  0  0  0  0
   32.7802   37.5449   58.3112 C   0  0  0  0  0  0  0  0  0  0  0  0
   32.7502   39.0203   58.6168 C   0  0  0  0  0  0  0  0  0  0  0  0
   33.1329   36.9799   57.1350 C   0  0  0  0  0  0  0  0  0  0  0  0
   33.6787   37.9030   55.5774 Br  0  0  0  0  0  0  0  0  0  0  0  0
   32.4158   34.3708   55.6297 H   0  0  0  0  0  0  0  0  0  0  0  0
   34.0940   34.9573   55.5388 H   0  0  0  0  0  0  0  0  0  0  0  0
   33.6688   33.6476   56.6666 H   0  0  0  0  0  0  0  0  0  0  0  0
   33.0675   33.9785   60.4171 H   0  0  0  0  0  0  0  0  0  0  0  0
   31.9253   32.4035   62.2729 H   0  0  0  0  0  0  0  0  0  0  0  0
   30.1844   33.8702   63.5748 H   0  0  0  0  0  0  0  0  0  0  0  0
   31.7659   39.4215   58.3753 H   0  0  0  0  0  0  0  0  0  0  0  0
   32.9564   39.1763   59.6757 H   0  0  0  0  0  0  0  0  0  0  0  0
   33.5068   39.5303   58.0205 H   0  0  0  0  0  0  0  0  0  0  0  0
  1  2  1  0  0  0  0
  1 16  1  0  0  0  0
  1 17  1  0  0  0  0
  1 18  1  0  0  0  0
  2 14  1  0  0  0  0
  2  3  2  0  0  0  0
  3  4  1  0  0  0  0
  4  5  1  0  0  0  0
  4 12  1  0  0  0  0
  5  6  2  0  0  0  0
  5  7  1  0  0  0  0
  7 11  1  0  0  0  0
  7  8  2  0  0  0  0
  8  9  1  0  0  0  0
  8 19  1  0  0  0  0
  9 10  2  0  0  0  0
  9 20  1  0  0  0  0
 10 11  1  0  0  0  0
 10 21  1  0  0  0  0
 12 13  1  0  0  0  0
 12 14  2  0  0  0  0
 13 22  1  0  0  0  0
 13 23  1  0  0  0  0
 13 24  1  0  0  0  0
 14 15  1  0  0  0  0
M  END
$$$$
