ZINC000000038356      none
 OpenBabel11202420153D

 42 44  0  0  0  0  0  0  0  0999 V2000
   33.3941   33.7353   58.6395 O   0  0  0  0  0  0  0  0  0  0  0  0
   33.3781   34.2733   57.5478 C   0  0  0  0  0  0  0  0  0  0  0  0
   32.9430   35.5433   57.4287 N   0  0  0  0  0  0  0  0  0  0  0  0
   32.5090   36.2439   58.5608 C   0  0  0  0  0  0  0  0  0  0  0  0
   32.6567   37.6232   58.6231 C   0  0  0  0  0  0  0  0  0  0  0  0
   32.2237   38.3139   59.7378 C   0  0  0  0  0  0  0  0  0  0  0  0
   31.6518   37.6289   60.7999 C   0  0  0  0  0  0  0  0  0  0  0  0
   31.2309   38.3090   61.8994 O   0  0  0  0  0  0  0  0  0  0  0  0
   30.1272   37.7576   62.6204 C   0  0  0  0  0  0  0  0  0  0  0  0
   29.8048   38.6408   63.7980 C   0  0  0  0  0  0  0  0  0  0  0  0
   28.7082   39.1506   63.8914 O   0  0  0  0  0  0  0  0  0  0  0  0
   30.7349   38.8643   64.7474 N   0  0  0  0  0  0  0  0  0  0  0  0
   30.4454   39.7280   65.9031 C   0  0  0  0  0  0  0  0  0  0  0  0
   30.8349   38.9660   67.1801 C   0  0  0  0  0  0  0  0  0  0  0  0
   32.1813   38.5017   67.0567 O   0  0  0  0  0  0  0  0  0  0  0  0
   32.3840   37.5710   65.9907 C   0  0  0  0  0  0  0  0  0  0  0  0
   32.0721   38.2567   64.6558 C   0  0  0  0  0  0  0  0  0  0  0  0
   31.5088   36.2503   60.7405 C   0  0  0  0  0  0  0  0  0  0  0  0
   31.9361   35.5589   59.6242 C   0  0  0  0  0  0  0  0  0  0  0  0
   33.8266   33.5381   56.3620 C   0  0  0  0  0  0  0  0  0  0  0  0
   33.0655   33.2736   55.2582 C   0  0  0  0  0  0  0  0  0  0  0  0
   33.7379   32.5648   54.2912 C   0  0  0  0  0  0  0  0  0  0  0  0
   35.0058   32.2584   54.5904 C   0  0  0  0  0  0  0  0  0  0  0  0
   35.4328   32.8616   56.1281 S   0  0  0  0  0  0  0  0  0  0  0  0
   32.9303   35.9721   56.5586 H   0  0  0  0  0  0  0  0  0  0  0  0
   33.1062   38.1561   57.7983 H   0  0  0  0  0  0  0  0  0  0  0  0
   32.3343   39.3872   59.7845 H   0  0  0  0  0  0  0  0  0  0  0  0
   29.2592   37.6957   61.9642 H   0  0  0  0  0  0  0  0  0  0  0  0
   30.3867   36.7600   62.9746 H   0  0  0  0  0  0  0  0  0  0  0  0
   31.0263   40.6473   65.8291 H   0  0  0  0  0  0  0  0  0  0  0  0
   29.3819   39.9660   65.9262 H   0  0  0  0  0  0  0  0  0  0  0  0
   30.1674   38.1154   67.3174 H   0  0  0  0  0  0  0  0  0  0  0  0
   30.7568   39.6325   68.0391 H   0  0  0  0  0  0  0  0  0  0  0  0
   31.7223   36.7152   66.1238 H   0  0  0  0  0  0  0  0  0  0  0  0
   33.4206   37.2336   65.9932 H   0  0  0  0  0  0  0  0  0  0  0  0
   32.0863   37.5203   63.8524 H   0  0  0  0  0  0  0  0  0  0  0  0
   32.8141   39.0306   64.4582 H   0  0  0  0  0  0  0  0  0  0  0  0
   31.0636   35.7177   61.5678 H   0  0  0  0  0  0  0  0  0  0  0  0
   31.8250   34.4855   59.5783 H   0  0  0  0  0  0  0  0  0  0  0  0
   32.0378   33.5899   55.1559 H   0  0  0  0  0  0  0  0  0  0  0  0
   33.2769   32.2764   53.3581 H   0  0  0  0  0  0  0  0  0  0  0  0
   35.6715   31.7074   53.9426 H   0  0  0  0  0  0  0  0  0  0  0  0
  1  2  2  0  0  0  0
  2  3  1  0  0  0  0
  2 20  1  0  0  0  0
  3  4  1  0  0  0  0
  3 25  1  0  0  0  0
  4 19  2  0  0  0  0
  4  5  1  0  0  0  0
  5  6  2  0  0  0  0
  5 26  1  0  0  0  0
  6  7  1  0  0  0  0
  6 27  1  0  0  0  0
  7  8  1  0  0  0  0
  7 18  2  0  0  0  0
  8  9  1  0  0  0  0
  9 10  1  0  0  0  0
  9 28  1  0  0  0  0
  9 29  1  0  0  0  0
 10 11  2  0  0  0  0
 10 12  1  0  0  0  0
 12 17  1  0  0  0  0
 12 13  1  0  0  0  0
 13 14  1  0  0  0  0
 13 30  1  0  0  0  0
 13 31  1  0  0  0  0
 14 15  1  0  0  0  0
 14 32  1  0  0  0  0
 14 33  1  0  0  0  0
 15 16  1  0  0  0  0
 16 17  1  0  0  0  0
 16 34  1  0  0  0  0
 16 35  1  0  0  0  0
 17 36  1  0  0  0  0
 17 37  1  0  0  0  0
 18 19  1  0  0  0  0
 18 38  1  0  0  0  0
 19 39  1  0  0  0  0
 20 24  1  0  0  0  0
 20 21  2  0  0  0  0
 21 22  1  0  0  0  0
 21 40  1  0  0  0  0
 22 23  2  0  0  0  0
 22 41  1  0  0  0  0
 23 24  1  0  0  0  0
 23 42  1  0  0  0  0
M  END
$$$$
