ZINC000000008690      none
 OpenBabel11202420153D

 32 35  0  0  1  0  0  0  0  0999 V2000
   32.9899   36.6534   64.0035 O   0  0  0  0  0  0  0  0  0  0  0  0
   31.9869   36.4830   63.0001 C   0  0  2  0  0  0  0  0  0  0  0  0
   32.5690   36.1715   61.7016 N   0  0  0  0  0  0  0  0  0  0  0  0
   32.0046   36.6314   60.6406 C   0  0  0  0  0  0  0  0  0  0  0  0
   32.3988   36.2976   59.2529 C   0  0  0  0  0  0  0  0  0  0  0  0
   32.8085   37.3050   58.3799 C   0  0  0  0  0  0  0  0  0  0  0  0
   33.1802   36.9869   57.0897 C   0  0  0  0  0  0  0  0  0  0  0  0
   33.1360   35.6733   56.6580 C   0  0  0  0  0  0  0  0  0  0  0  0
   32.7250   34.6704   57.5176 C   0  0  0  0  0  0  0  0  0  0  0  0
   32.3564   34.9752   58.8120 C   0  0  0  0  0  0  0  0  0  0  0  0
   30.6796   37.7497   61.0910 S   0  0  0  0  0  0  0  0  0  0  0  0
   31.1147   37.7604   62.8619 C   0  0  1  0  0  0  0  0  0  0  0  0
   31.6215   38.6725   63.1770 H   0  0  0  0  0  0  0  0  0  0  0  0
   29.8737   37.4318   63.7060 C   0  0  0  0  0  0  0  0  0  0  0  0
   29.8097   35.9225   63.7757 C   0  0  0  0  0  0  0  0  0  0  0  0
   28.7721   35.0882   64.1599 C   0  0  0  0  0  0  0  0  0  0  0  0
   28.9437   33.7170   64.1531 C   0  0  0  0  0  0  0  0  0  0  0  0
   27.6404   32.6750   64.6323 Cl  0  0  0  0  0  0  0  0  0  0  0  0
   30.1560   33.1757   63.7631 C   0  0  0  0  0  0  0  0  0  0  0  0
   31.1896   34.0070   63.3796 C   0  0  0  0  0  0  0  0  0  0  0  0
   31.0172   35.3823   63.3829 C   0  0  0  0  0  0  0  0  0  0  0  0
   32.6371   36.8377   64.8847 H   0  0  0  0  0  0  0  0  0  0  0  0
   32.8388   38.3315   58.7144 H   0  0  0  0  0  0  0  0  0  0  0  0
   33.5016   37.7657   56.4139 H   0  0  0  0  0  0  0  0  0  0  0  0
   33.4239   35.4299   55.6460 H   0  0  0  0  0  0  0  0  0  0  0  0
   32.6923   33.6467   57.1749 H   0  0  0  0  0  0  0  0  0  0  0  0
   32.0354   34.1915   59.4820 H   0  0  0  0  0  0  0  0  0  0  0  0
   28.9774   37.8243   63.2255 H   0  0  0  0  0  0  0  0  0  0  0  0
   29.9770   37.8504   64.7072 H   0  0  0  0  0  0  0  0  0  0  0  0
   27.8279   35.5110   64.4699 H   0  0  0  0  0  0  0  0  0  0  0  0
   30.2936   32.1046   63.7588 H   0  0  0  0  0  0  0  0  0  0  0  0
   32.1358   33.5840   63.0764 H   0  0  0  0  0  0  0  0  0  0  0  0
  1 22  1  0  0  0  0
  2  1  1  1  0  0  0
  2 12  1  0  0  0  0
  2 21  1  0  0  0  0
  2  3  1  0  0  0  0
  3  4  2  0  0  0  0
  4  5  1  0  0  0  0
  4 11  1  0  0  0  0
  5 10  2  0  0  0  0
  5  6  1  0  0  0  0
  6  7  2  0  0  0  0
  6 23  1  0  0  0  0
  7  8  1  0  0  0  0
  7 24  1  0  0  0  0
  8  9  2  0  0  0  0
  8 25  1  0  0  0  0
  9 10  1  0  0  0  0
  9 26  1  0  0  0  0
 10 27  1  0  0  0  0
 11 12  1  0  0  0  0
 12 13  1  1  0  0  0
 12 14  1  0  0  0  0
 14 15  1  0  0  0  0
 14 28  1  0  0  0  0
 14 29  1  0  0  0  0
 15 21  2  0  0  0  0
 15 16  1  0  0  0  0
 16 17  2  0  0  0  0
 16 30  1  0  0  0  0
 17 18  1  0  0  0  0
 17 19  1  0  0  0  0
 19 20  2  0  0  0  0
 19 31  1  0  0  0  0
 20 21  1  0  0  0  0
 20 32  1  0  0  0  0
M  END
$$$$
