ZINC000000057418      none
 OpenBabel11202420153D

 32 33  0  0  1  0  0  0  0  0999 V2000
   35.0440   39.7917   55.1540 O   0  0  0  0  0  0  0  0  0  0  0  0
   34.4889   38.7845   55.5552 N   0  0  0  0  0  0  0  0  0  0  0  0
   34.5117   37.7681   54.8844 O   0  0  0  0  0  0  0  0  0  0  0  0
   33.7865   38.7957   56.8579 C   0  0  0  0  0  0  0  0  0  0  0  0
   33.1563   37.6519   57.3120 C   0  0  0  0  0  0  0  0  0  0  0  0
   32.4992   37.6599   58.5272 C   0  0  0  0  0  0  0  0  0  0  0  0
   32.4724   38.8169   59.2922 C   0  0  0  0  0  0  0  0  0  0  0  0
   31.8262   38.8276   60.4877 O   0  0  0  0  0  0  0  0  0  0  0  0
   31.1958   37.6117   60.8955 C   0  0  1  0  0  0  0  0  0  0  0  0
   30.4443   37.3272   60.1591 H   0  0  0  0  0  0  0  0  0  0  0  0
   32.1770   36.5780   60.9992 O   0  0  0  0  0  0  0  0  0  0  0  0
   31.6462   35.3060   61.3780 C   0  0  0  0  0  0  0  0  0  0  0  0
   30.9939   35.4174   62.7585 C   0  0  2  0  0  0  0  0  0  0  0  0
   31.7468   35.6923   63.4971 H   0  0  0  0  0  0  0  0  0  0  0  0
   30.4119   34.1619   63.1144 O   0  0  0  0  0  0  0  0  0  0  0  0
   29.9038   36.4927   62.7143 C   0  0  1  0  0  0  0  0  0  0  0  0
   29.1250   36.1938   62.0127 H   0  0  0  0  0  0  0  0  0  0  0  0
   29.3376   36.6556   64.0161 O   0  0  0  0  0  0  0  0  0  0  0  0
   30.5255   37.8158   62.2566 C   0  0  1  0  0  0  0  0  0  0  0  0
   29.7465   38.5731   62.1692 H   0  0  0  0  0  0  0  0  0  0  0  0
   31.5009   38.2403   63.2106 O   0  0  0  0  0  0  0  0  0  0  0  0
   33.1014   39.9647   58.8321 C   0  0  0  0  0  0  0  0  0  0  0  0
   33.7612   39.9501   57.6185 C   0  0  0  0  0  0  0  0  0  0  0  0
   33.1775   36.7514   56.7161 H   0  0  0  0  0  0  0  0  0  0  0  0
   32.0065   36.7665   58.8811 H   0  0  0  0  0  0  0  0  0  0  0  0
   32.4517   34.5725   61.4147 H   0  0  0  0  0  0  0  0  0  0  0  0
   30.9007   34.9911   60.6480 H   0  0  0  0  0  0  0  0  0  0  0  0
   29.9758   34.1610   63.9775 H   0  0  0  0  0  0  0  0  0  0  0  0
   29.9763   36.9191   64.6926 H   0  0  0  0  0  0  0  0  0  0  0  0
   31.1451   38.3891   64.0973 H   0  0  0  0  0  0  0  0  0  0  0  0
   33.0784   40.8678   59.4239 H   0  0  0  0  0  0  0  0  0  0  0  0
   34.2539   40.8423   57.2614 H   0  0  0  0  0  0  0  0  0  0  0  0
  1  2  2  0  0  0  0
  2  3  2  0  0  0  0
  2  4  1  0  0  0  0
  4 23  2  0  0  0  0
  4  5  1  0  0  0  0
  5  6  2  0  0  0  0
  5 24  1  0  0  0  0
  6  7  1  0  0  0  0
  6 25  1  0  0  0  0
  7  8  1  0  0  0  0
  7 22  2  0  0  0  0
  8  9  1  0  0  0  0
  9 10  1  6  0  0  0
  9 19  1  0  0  0  0
  9 11  1  0  0  0  0
 11 12  1  0  0  0  0
 12 13  1  0  0  0  0
 12 26  1  0  0  0  0
 12 27  1  0  0  0  0
 13 14  1  1  0  0  0
 13 15  1  0  0  0  0
 13 16  1  0  0  0  0
 15 28  1  0  0  0  0
 16 17  1  6  0  0  0
 16 18  1  0  0  0  0
 16 19  1  0  0  0  0
 18 29  1  0  0  0  0
 19 20  1  6  0  0  0
 19 21  1  0  0  0  0
 21 30  1  0  0  0  0
 22 23  1  0  0  0  0
 22 31  1  0  0  0  0
 23 32  1  0  0  0  0
M  END
$$$$
