ZINC000000006739      none
 OpenBabel11202420153D

 31 33  0  0  0  0  0  0  0  0999 V2000
   33.5988   36.7959   55.6666 N   0  0  0  0  0  0  0  0  0  0  0  0
   33.2240   37.0167   56.9887 C   0  0  0  0  0  0  0  0  0  0  0  0
   33.2492   38.3066   57.5114 C   0  0  0  0  0  0  0  0  0  0  0  0
   32.8788   38.5287   58.8183 C   0  0  0  0  0  0  0  0  0  0  0  0
   32.4769   37.4567   59.6212 C   0  0  0  0  0  0  0  0  0  0  0  0
   32.0800   37.6905   61.0216 C   0  0  0  0  0  0  0  0  0  0  0  0
   31.0339   38.5236   61.2752 C   0  0  0  0  0  0  0  0  0  0  0  0
   30.6361   38.7553   62.6124 C   0  0  0  0  0  0  0  0  0  0  0  0
   29.7003   39.4928   62.8769 O   0  0  0  0  0  0  0  0  0  0  0  0
   31.4000   38.0768   63.6740 C   0  0  0  0  0  0  0  0  0  0  0  0
   31.0810   38.2521   65.0271 C   0  0  0  0  0  0  0  0  0  0  0  0
   30.0257   39.0780   65.3980 N   0  0  0  0  0  0  0  0  0  0  0  0
   31.8276   37.5932   65.9930 C   0  0  0  0  0  0  0  0  0  0  0  0
   32.8770   36.7714   65.6207 C   0  0  0  0  0  0  0  0  0  0  0  0
   33.1978   36.5935   64.2898 C   0  0  0  0  0  0  0  0  0  0  0  0
   32.4660   37.2415   63.3039 C   0  0  0  0  0  0  0  0  0  0  0  0
   32.7676   37.0779   61.9985 O   0  0  0  0  0  0  0  0  0  0  0  0
   32.4528   36.1622   59.0928 C   0  0  0  0  0  0  0  0  0  0  0  0
   32.8246   35.9473   57.7851 C   0  0  0  0  0  0  0  0  0  0  0  0
   33.8771   37.5404   55.1106 H   0  0  0  0  0  0  0  0  0  0  0  0
   33.5817   35.8975   55.3012 H   0  0  0  0  0  0  0  0  0  0  0  0
   33.5600   39.1340   56.8908 H   0  0  0  0  0  0  0  0  0  0  0  0
   32.9028   39.5290   59.2244 H   0  0  0  0  0  0  0  0  0  0  0  0
   30.5085   39.0007   60.4610 H   0  0  0  0  0  0  0  0  0  0  0  0
   29.7203   39.0906   66.3186 H   0  0  0  0  0  0  0  0  0  0  0  0
   29.5951   39.6414   64.7363 H   0  0  0  0  0  0  0  0  0  0  0  0
   31.5895   37.7223   67.0384 H   0  0  0  0  0  0  0  0  0  0  0  0
   33.4518   36.2628   66.3807 H   0  0  0  0  0  0  0  0  0  0  0  0
   34.0195   35.9486   64.0150 H   0  0  0  0  0  0  0  0  0  0  0  0
   32.1427   35.3320   59.7100 H   0  0  0  0  0  0  0  0  0  0  0  0
   32.8059   34.9479   57.3763 H   0  0  0  0  0  0  0  0  0  0  0  0
  1  2  1  0  0  0  0
  1 20  1  0  0  0  0
  1 21  1  0  0  0  0
  2 19  2  0  0  0  0
  2  3  1  0  0  0  0
  3  4  2  0  0  0  0
  3 22  1  0  0  0  0
  4  5  1  0  0  0  0
  4 23  1  0  0  0  0
  5  6  1  0  0  0  0
  5 18  2  0  0  0  0
  6 17  1  0  0  0  0
  6  7  2  0  0  0  0
  7  8  1  0  0  0  0
  7 24  1  0  0  0  0
  8  9  2  0  0  0  0
  8 10  1  0  0  0  0
 10 16  2  0  0  0  0
 10 11  1  0  0  0  0
 11 12  1  0  0  0  0
 11 13  2  0  0  0  0
 12 25  1  0  0  0  0
 12 26  1  0  0  0  0
 13 14  1  0  0  0  0
 13 27  1  0  0  0  0
 14 15  2  0  0  0  0
 14 28  1  0  0  0  0
 15 16  1  0  0  0  0
 15 29  1  0  0  0  0
 16 17  1  0  0  0  0
 18 19  1  0  0  0  0
 18 30  1  0  0  0  0
 19 31  1  0  0  0  0
M  END
$$$$
