ZINC000000029396      none
 OpenBabel11202420163D

 39 41  0  0  0  0  0  0  0  0999 V2000
   29.1450   36.5078   61.3072 O   0  0  0  0  0  0  0  0  0  0  0  0
   30.2780   37.3180   61.5888 S   0  0  0  0  0  0  0  0  0  0  0  0
   30.1807   38.6770   61.9924 O   0  0  0  0  0  0  0  0  0  0  0  0
   31.2756   37.3003   60.1366 C   0  0  0  0  0  0  0  0  0  0  0  0
   31.4971   36.1127   59.4646 C   0  0  0  0  0  0  0  0  0  0  0  0
   32.2759   36.0996   58.3226 C   0  0  0  0  0  0  0  0  0  0  0  0
   32.8418   37.2723   57.8584 C   0  0  0  0  0  0  0  0  0  0  0  0
   32.6245   38.4590   58.5333 C   0  0  0  0  0  0  0  0  0  0  0  0
   31.8415   38.4729   59.6724 C   0  0  0  0  0  0  0  0  0  0  0  0
   31.1274   36.5370   62.7767 N   0  0  0  0  0  0  0  0  0  0  0  0
   32.4354   37.0458   63.1970 C   0  0  0  0  0  0  0  0  0  0  0  0
   32.3923   37.3918   64.6631 C   0  0  0  0  0  0  0  0  0  0  0  0
   32.0327   38.6655   65.0623 C   0  0  0  0  0  0  0  0  0  0  0  0
   31.9885   38.9816   66.4073 C   0  0  0  0  0  0  0  0  0  0  0  0
   32.3140   38.0271   67.3527 C   0  0  0  0  0  0  0  0  0  0  0  0
   32.6786   36.7549   66.9531 C   0  0  0  0  0  0  0  0  0  0  0  0
   32.7178   36.4373   65.6085 C   0  0  0  0  0  0  0  0  0  0  0  0
   30.5993   35.3989   63.3750 C   0  0  0  0  0  0  0  0  0  0  0  0
   30.8737   34.1459   62.8357 C   0  0  0  0  0  0  0  0  0  0  0  0
   30.3419   33.0220   63.4410 C   0  0  0  0  0  0  0  0  0  0  0  0
   29.5503   33.1892   64.5698 C   0  0  0  0  0  0  0  0  0  0  0  0
   29.3143   34.4623   65.0477 C   0  0  0  0  0  0  0  0  0  0  0  0
   29.8395   35.5168   64.4528 N   0  0  0  0  0  0  0  0  0  0  0  0
   31.0587   35.1958   59.8298 H   0  0  0  0  0  0  0  0  0  0  0  0
   32.4458   35.1724   57.7955 H   0  0  0  0  0  0  0  0  0  0  0  0
   33.4538   37.2613   56.9686 H   0  0  0  0  0  0  0  0  0  0  0  0
   33.0669   39.3751   58.1709 H   0  0  0  0  0  0  0  0  0  0  0  0
   31.6721   39.4000   60.1999 H   0  0  0  0  0  0  0  0  0  0  0  0
   33.1943   36.2822   63.0261 H   0  0  0  0  0  0  0  0  0  0  0  0
   32.6809   37.9375   62.6202 H   0  0  0  0  0  0  0  0  0  0  0  0
   31.7826   39.4125   64.3235 H   0  0  0  0  0  0  0  0  0  0  0  0
   31.7038   39.9756   66.7194 H   0  0  0  0  0  0  0  0  0  0  0  0
   32.2837   38.2753   68.4033 H   0  0  0  0  0  0  0  0  0  0  0  0
   32.9333   36.0092   67.6919 H   0  0  0  0  0  0  0  0  0  0  0  0
   33.0031   35.4435   65.2964 H   0  0  0  0  0  0  0  0  0  0  0  0
   31.4939   34.0524   61.9564 H   0  0  0  0  0  0  0  0  0  0  0  0
   30.5378   32.0366   63.0449 H   0  0  0  0  0  0  0  0  0  0  0  0
   29.1200   32.3318   65.0661 H   0  0  0  0  0  0  0  0  0  0  0  0
   28.6954   34.5971   65.9226 H   0  0  0  0  0  0  0  0  0  0  0  0
  1  2  2  0  0  0  0
  2  3  2  0  0  0  0
  2  4  1  0  0  0  0
  2 10  1  0  0  0  0
  4  9  2  0  0  0  0
  4  5  1  0  0  0  0
  5  6  2  0  0  0  0
  5 24  1  0  0  0  0
  6  7  1  0  0  0  0
  6 25  1  0  0  0  0
  7  8  2  0  0  0  0
  7 26  1  0  0  0  0
  8  9  1  0  0  0  0
  8 27  1  0  0  0  0
  9 28  1  0  0  0  0
 10 11  1  0  0  0  0
 10 18  1  0  0  0  0
 11 12  1  0  0  0  0
 11 29  1  0  0  0  0
 11 30  1  0  0  0  0
 12 17  2  0  0  0  0
 12 13  1  0  0  0  0
 13 14  2  0  0  0  0
 13 31  1  0  0  0  0
 14 15  1  0  0  0  0
 14 32  1  0  0  0  0
 15 16  2  0  0  0  0
 15 33  1  0  0  0  0
 16 17  1  0  0  0  0
 16 34  1  0  0  0  0
 17 35  1  0  0  0  0
 18 23  2  0  0  0  0
 18 19  1  0  0  0  0
 19 20  2  0  0  0  0
 19 36  1  0  0  0  0
 20 21  1  0  0  0  0
 20 37  1  0  0  0  0
 21 22  2  0  0  0  0
 21 38  1  0  0  0  0
 22 23  1  0  0  0  0
 22 39  1  0  0  0  0
M  END
$$$$
