ZINC000000004551      none
 OpenBabel11202420153D

 30 31  0  0  0  0  0  0  0  0999 V2000
   31.0725   37.3943   60.1028 O   0  0  0  0  0  0  0  0  0  0  0  0
   31.5329   38.3653   60.6716 C   0  0  0  0  0  0  0  0  0  0  0  0
   32.4645   39.1247   60.0618 N   0  0  0  0  0  0  0  0  0  0  0  0
   32.9004   38.7967   58.7775 C   0  0  0  0  0  0  0  0  0  0  0  0
   33.3319   39.7855   57.8945 C   0  0  0  0  0  0  0  0  0  0  0  0
   33.7547   39.4198   56.6335 C   0  0  0  0  0  0  0  0  0  0  0  0
   33.7493   38.1545   56.2586 N   0  0  0  0  0  0  0  0  0  0  0  0
   33.3533   37.1893   57.0669 C   0  0  0  0  0  0  0  0  0  0  0  0
   32.9155   37.4719   58.3441 C   0  0  0  0  0  0  0  0  0  0  0  0
   31.1118   38.6822   61.9121 N   0  0  0  0  0  0  0  0  0  0  0  0
   30.1675   37.9125   62.5302 N   0  0  0  0  0  0  0  0  0  0  0  0
   29.3100   38.7284   63.3992 C   0  0  0  0  0  0  0  0  0  0  0  0
   30.0662   39.1556   64.6239 C   0  0  0  0  0  0  0  0  0  0  0  0
   31.1681   38.5905   65.0141 C   0  0  0  0  0  0  0  0  0  0  0  0
   31.8072   37.4496   64.2729 C   0  0  0  0  0  0  0  0  0  0  0  0
   30.7947   36.8299   63.3064 C   0  0  0  0  0  0  0  0  0  0  0  0
   32.8318   39.8994   60.5155 H   0  0  0  0  0  0  0  0  0  0  0  0
   33.3353   40.8231   58.1938 H   0  0  0  0  0  0  0  0  0  0  0  0
   34.0904   40.1791   55.9427 H   0  0  0  0  0  0  0  0  0  0  0  0
   33.3682   36.1658   56.7227 H   0  0  0  0  0  0  0  0  0  0  0  0
   32.5884   36.6778   58.9990 H   0  0  0  0  0  0  0  0  0  0  0  0
   31.4791   39.4568   62.3659 H   0  0  0  0  0  0  0  0  0  0  0  0
   28.9788   39.6115   62.8529 H   0  0  0  0  0  0  0  0  0  0  0  0
   28.4395   38.1445   63.6983 H   0  0  0  0  0  0  0  0  0  0  0  0
   29.6741   39.9738   65.2094 H   0  0  0  0  0  0  0  0  0  0  0  0
   31.6462   38.9559   65.9108 H   0  0  0  0  0  0  0  0  0  0  0  0
   32.1377   36.6940   64.9855 H   0  0  0  0  0  0  0  0  0  0  0  0
   32.6659   37.8178   63.7115 H   0  0  0  0  0  0  0  0  0  0  0  0
   30.0313   36.2933   63.8699 H   0  0  0  0  0  0  0  0  0  0  0  0
   31.3057   36.1435   62.6310 H   0  0  0  0  0  0  0  0  0  0  0  0
  1  2  2  0  0  0  0
  2  3  1  0  0  0  0
  2 10  1  0  0  0  0
  3  4  1  0  0  0  0
  3 17  1  0  0  0  0
  4  9  2  0  0  0  0
  4  5  1  0  0  0  0
  5  6  2  0  0  0  0
  5 18  1  0  0  0  0
  6  7  1  0  0  0  0
  6 19  1  0  0  0  0
  7  8  2  0  0  0  0
  8  9  1  0  0  0  0
  8 20  1  0  0  0  0
  9 21  1  0  0  0  0
 10 11  1  0  0  0  0
 10 22  1  0  0  0  0
 11 16  1  0  0  0  0
 11 12  1  0  0  0  0
 12 13  1  0  0  0  0
 12 23  1  0  0  0  0
 12 24  1  0  0  0  0
 13 14  2  0  0  0  0
 13 25  1  0  0  0  0
 14 15  1  0  0  0  0
 14 26  1  0  0  0  0
 15 16  1  0  0  0  0
 15 27  1  0  0  0  0
 15 28  1  0  0  0  0
 16 29  1  0  0  0  0
 16 30  1  0  0  0  0
M  END
$$$$
