ZINC000000032424      none
 OpenBabel11202420153D

 26 28  0  0  0  0  0  0  0  0999 V2000
   33.2195   40.7874   58.8179 N   0  0  0  0  0  0  0  0  0  0  0  0
   33.1834   39.5113   58.2753 C   0  0  0  0  0  0  0  0  0  0  0  0
   33.5163   39.1833   57.0597 N   0  0  0  0  0  0  0  0  0  0  0  0
   33.4262   37.9676   56.7367 N   0  0  0  0  0  0  0  0  0  0  0  0
   33.0004   37.1332   57.6282 C   0  0  0  0  0  0  0  0  0  0  0  0
   32.8179   35.6493   57.4391 C   0  0  0  0  0  0  0  0  0  0  0  0
   33.2107   35.2700   56.0344 C   0  0  0  0  0  0  0  0  0  0  0  0
   33.1178   36.0449   54.9424 C   0  0  0  0  0  0  0  0  0  0  0  0
   33.5680   35.3616   53.8457 N   0  0  0  0  0  0  0  0  0  0  0  0
   33.5977   35.7145   52.9428 H   0  0  0  0  0  0  0  0  0  0  0  0
   33.9719   34.0982   54.2148 C   0  0  0  0  0  0  0  0  0  0  0  0
   34.4985   33.0179   53.5138 C   0  0  0  0  0  0  0  0  0  0  0  0
   34.8109   31.8550   54.1828 C   0  0  0  0  0  0  0  0  0  0  0  0
   34.6057   31.7485   55.5519 C   0  0  0  0  0  0  0  0  0  0  0  0
   34.0896   32.7970   56.2597 C   0  0  0  0  0  0  0  0  0  0  0  0
   33.7659   33.9853   55.6018 C   0  0  0  0  0  0  0  0  0  0  0  0
   32.6780   38.0394   59.1079 S   0  0  0  0  0  0  0  0  0  0  0  0
   32.9501   40.9306   59.7386 H   0  0  0  0  0  0  0  0  0  0  0  0
   33.5140   41.5363   58.2765 H   0  0  0  0  0  0  0  0  0  0  0  0
   31.7734   35.3872   57.6076 H   0  0  0  0  0  0  0  0  0  0  0  0
   33.4465   35.1124   58.1496 H   0  0  0  0  0  0  0  0  0  0  0  0
   32.7431   37.0578   54.9310 H   0  0  0  0  0  0  0  0  0  0  0  0
   34.6616   33.0907   52.4487 H   0  0  0  0  0  0  0  0  0  0  0  0
   35.2196   31.0176   53.6369 H   0  0  0  0  0  0  0  0  0  0  0  0
   34.8601   30.8313   56.0619 H   0  0  0  0  0  0  0  0  0  0  0  0
   33.9330   32.7070   57.3244 H   0  0  0  0  0  0  0  0  0  0  0  0
  1  2  1  0  0  0  0
  1 18  1  0  0  0  0
  1 19  1  0  0  0  0
  2 17  1  0  0  0  0
  2  3  2  0  0  0  0
  3  4  1  0  0  0  0
  4  5  2  0  0  0  0
  5  6  1  0  0  0  0
  5 17  1  0  0  0  0
  6  7  1  0  0  0  0
  6 20  1  0  0  0  0
  6 21  1  0  0  0  0
  7 16  1  0  0  0  0
  7  8  2  0  0  0  0
  8  9  1  0  0  0  0
  8 22  1  0  0  0  0
  9 10  1  0  0  0  0
  9 11  1  0  0  0  0
 11 16  2  0  0  0  0
 11 12  1  0  0  0  0
 12 13  2  0  0  0  0
 12 23  1  0  0  0  0
 13 14  1  0  0  0  0
 13 24  1  0  0  0  0
 14 15  2  0  0  0  0
 14 25  1  0  0  0  0
 15 16  1  0  0  0  0
 15 26  1  0  0  0  0
M  END
$$$$
