ZINC000000030568      none
 OpenBabel11202420163D

 33 33  0  0  1  0  0  0  0  0999 V2000
   30.5716   39.1736   64.6062 C   0  0  0  0  0  0  0  0  0  0  0  0
   29.6820   38.0970   63.9813 C   0  0  0  0  0  0  0  0  0  0  0  0
   30.0987   37.8724   62.5265 C   0  0  0  0  0  0  0  0  0  0  0  0
   31.5590   37.4185   62.4785 C   0  0  1  0  0  0  0  0  0  0  0  0
   32.1928   38.1855   62.9237 H   0  0  0  0  0  0  0  0  0  0  0  0
   31.7131   36.1125   63.2604 C   0  0  0  0  0  0  0  0  0  0  0  0
   31.9695   37.1975   61.0454 C   0  0  0  0  0  0  0  0  0  0  0  0
   31.8256   36.1070   60.5346 O   0  0  0  0  0  0  0  0  0  0  0  0
   32.4967   38.2116   60.3312 N   0  0  0  0  0  0  0  0  0  0  0  0
   32.8764   38.0072   59.0056 C   0  0  0  0  0  0  0  0  0  0  0  0
   33.4141   39.0595   58.2730 C   0  0  0  0  0  0  0  0  0  0  0  0
   33.7912   38.8416   56.9597 C   0  0  0  0  0  0  0  0  0  0  0  0
   34.3831   39.9541   56.1332 C   0  0  0  0  0  0  0  0  0  0  0  0
   33.6071   37.5762   56.4190 C   0  0  0  0  0  0  0  0  0  0  0  0
   33.0623   36.5788   57.2031 C   0  0  0  0  0  0  0  0  0  0  0  0
   32.7166   36.8147   58.4543 N   0  0  0  0  0  0  0  0  0  0  0  0
   30.2749   39.3336   65.6428 H   0  0  0  0  0  0  0  0  0  0  0  0
   31.6120   38.8502   64.5720 H   0  0  0  0  0  0  0  0  0  0  0  0
   30.4618   40.1040   64.0491 H   0  0  0  0  0  0  0  0  0  0  0  0
   28.6418   38.4204   64.0157 H   0  0  0  0  0  0  0  0  0  0  0  0
   29.7919   37.1665   64.5385 H   0  0  0  0  0  0  0  0  0  0  0  0
   29.9889   38.8029   61.9692 H   0  0  0  0  0  0  0  0  0  0  0  0
   29.4650   37.1054   62.0812 H   0  0  0  0  0  0  0  0  0  0  0  0
   31.0794   35.3455   62.8151 H   0  0  0  0  0  0  0  0  0  0  0  0
   32.7535   35.7891   63.2261 H   0  0  0  0  0  0  0  0  0  0  0  0
   31.4162   36.2724   64.2969 H   0  0  0  0  0  0  0  0  0  0  0  0
   32.6118   39.0839   60.7397 H   0  0  0  0  0  0  0  0  0  0  0  0
   33.5393   40.0328   58.7241 H   0  0  0  0  0  0  0  0  0  0  0  0
   33.5842   40.4923   55.6230 H   0  0  0  0  0  0  0  0  0  0  0  0
   34.9259   40.6404   56.7832 H   0  0  0  0  0  0  0  0  0  0  0  0
   35.0672   39.5345   55.3957 H   0  0  0  0  0  0  0  0  0  0  0  0
   33.8875   37.3741   55.3958 H   0  0  0  0  0  0  0  0  0  0  0  0
   32.9175   35.5928   56.7869 H   0  0  0  0  0  0  0  0  0  0  0  0
  1  2  1  0  0  0  0
  1 17  1  0  0  0  0
  1 18  1  0  0  0  0
  1 19  1  0  0  0  0
  2  3  1  0  0  0  0
  2 20  1  0  0  0  0
  2 21  1  0  0  0  0
  3  4  1  0  0  0  0
  3 22  1  0  0  0  0
  3 23  1  0  0  0  0
  4  5  1  1  0  0  0
  4  6  1  0  0  0  0
  4  7  1  0  0  0  0
  6 24  1  0  0  0  0
  6 25  1  0  0  0  0
  6 26  1  0  0  0  0
  7  8  2  0  0  0  0
  7  9  1  0  0  0  0
  9 10  1  0  0  0  0
  9 27  1  0  0  0  0
 10 16  2  0  0  0  0
 10 11  1  0  0  0  0
 11 12  2  0  0  0  0
 11 28  1  0  0  0  0
 12 13  1  0  0  0  0
 12 14  1  0  0  0  0
 13 29  1  0  0  0  0
 13 30  1  0  0  0  0
 13 31  1  0  0  0  0
 14 15  2  0  0  0  0
 14 32  1  0  0  0  0
 15 16  1  0  0  0  0
 15 33  1  0  0  0  0
M  END
$$$$
