ZINC000000008028      none
 OpenBabel11202420153D

 26 27  0  0  0  0  0  0  0  0999 V2000
   30.7888   33.5219   59.2318 C   0  0  0  0  0  0  0  0  0  0  0  0
   32.1853   33.8171   59.1643 O   0  0  0  0  0  0  0  0  0  0  0  0
   32.5852   34.6945   58.2051 C   0  0  0  0  0  0  0  0  0  0  0  0
   32.9441   34.2321   56.9504 C   0  0  0  0  0  0  0  0  0  0  0  0
   33.3521   35.1212   55.9695 C   0  0  0  0  0  0  0  0  0  0  0  0
   33.8391   34.4739   54.2608 Br  0  0  0  0  0  0  0  0  0  0  0  0
   33.4062   36.4762   56.2294 C   0  0  0  0  0  0  0  0  0  0  0  0
   33.0482   36.9610   57.4899 C   0  0  0  0  0  0  0  0  0  0  0  0
   32.6338   36.0547   58.4847 C   0  0  0  0  0  0  0  0  0  0  0  0
   32.2832   36.5088   59.7145 O   0  0  0  0  0  0  0  0  0  0  0  0
   31.1921   37.4293   59.7793 C   0  0  0  0  0  0  0  0  0  0  0  0
   33.1808   38.4225   57.5404 C   0  0  0  0  0  0  0  0  0  0  0  0
   32.9428   39.1258   58.4996 O   0  0  0  0  0  0  0  0  0  0  0  0
   33.6650   38.8983   56.1922 C   0  0  0  0  0  0  0  0  0  0  0  0
   33.8124   37.6301   55.3403 C   0  0  0  0  0  0  0  0  0  0  0  0
   30.2323   34.4394   59.4239 H   0  0  0  0  0  0  0  0  0  0  0  0
   30.4622   33.0903   58.2857 H   0  0  0  0  0  0  0  0  0  0  0  0
   30.6063   32.8109   60.0376 H   0  0  0  0  0  0  0  0  0  0  0  0
   32.9054   33.1744   56.7355 H   0  0  0  0  0  0  0  0  0  0  0  0
   31.4317   38.3184   59.1961 H   0  0  0  0  0  0  0  0  0  0  0  0
   30.2959   36.9596   59.3740 H   0  0  0  0  0  0  0  0  0  0  0  0
   31.0164   37.7121   60.8173 H   0  0  0  0  0  0  0  0  0  0  0  0
   32.9338   39.5712   55.7443 H   0  0  0  0  0  0  0  0  0  0  0  0
   34.6276   39.3999   56.2921 H   0  0  0  0  0  0  0  0  0  0  0  0
   33.1555   37.6837   54.4721 H   0  0  0  0  0  0  0  0  0  0  0  0
   34.8477   37.5117   55.0206 H   0  0  0  0  0  0  0  0  0  0  0  0
  1  2  1  0  0  0  0
  1 16  1  0  0  0  0
  1 17  1  0  0  0  0
  1 18  1  0  0  0  0
  2  3  1  0  0  0  0
  3  9  2  0  0  0  0
  3  4  1  0  0  0  0
  4  5  2  0  0  0  0
  4 19  1  0  0  0  0
  5  6  1  0  0  0  0
  5  7  1  0  0  0  0
  7 15  1  0  0  0  0
  7  8  2  0  0  0  0
  8  9  1  0  0  0  0
  8 12  1  0  0  0  0
  9 10  1  0  0  0  0
 10 11  1  0  0  0  0
 11 20  1  0  0  0  0
 11 21  1  0  0  0  0
 11 22  1  0  0  0  0
 12 13  2  0  0  0  0
 12 14  1  0  0  0  0
 14 15  1  0  0  0  0
 14 23  1  0  0  0  0
 14 24  1  0  0  0  0
 15 25  1  0  0  0  0
 15 26  1  0  0  0  0
M  END
$$$$
