ZINC000000038980      none
 OpenBabel11202420153D

 41 43  0  0  0  0  0  0  0  0999 V2000
   32.2255   34.1380   58.0133 C   0  0  0  0  0  0  0  0  0  0  0  0
   33.1717   35.1669   58.3105 O   0  0  0  0  0  0  0  0  0  0  0  0
   32.7910   36.4479   58.0576 C   0  0  0  0  0  0  0  0  0  0  0  0
   33.0397   37.0142   56.8184 C   0  0  0  0  0  0  0  0  0  0  0  0
   32.6516   38.3165   56.5625 C   0  0  0  0  0  0  0  0  0  0  0  0
   32.0149   39.0570   57.5410 C   0  0  0  0  0  0  0  0  0  0  0  0
   31.7629   38.4992   58.7803 C   0  0  0  0  0  0  0  0  0  0  0  0
   32.1494   37.1933   59.0443 C   0  0  0  0  0  0  0  0  0  0  0  0
   31.8958   36.6263   60.2985 N   0  0  0  0  0  0  0  0  0  0  0  0
   30.4517   36.5143   60.5434 C   0  0  0  0  0  0  0  0  0  0  0  0
   30.2159   35.7289   61.8379 C   0  0  0  0  0  0  0  0  0  0  0  0
   30.9821   36.3680   62.9184 N   0  0  0  0  0  0  0  0  0  0  0  0
   30.3914   36.6973   64.0842 C   0  0  0  0  0  0  0  0  0  0  0  0
   29.2086   36.4662   64.2536 O   0  0  0  0  0  0  0  0  0  0  0  0
   31.1739   37.3339   65.1487 C   0  0  0  0  0  0  0  0  0  0  0  0
   31.8598   36.6873   66.1366 C   0  0  0  0  0  0  0  0  0  0  0  0
   32.4593   37.6796   66.9276 C   0  0  0  0  0  0  0  0  0  0  0  0
   32.1177   38.8734   66.3947 C   0  0  0  0  0  0  0  0  0  0  0  0
   32.5309   40.1978   66.9107 N   0  0  0  0  0  0  0  0  0  0  0  0
   33.2399   40.2724   67.8983 O   0  0  0  0  0  0  0  0  0  0  0  0
   32.1619   41.2129   66.3479 O   0  0  0  0  0  0  0  0  0  0  0  0
   31.3473   38.6607   65.3200 O   0  0  0  0  0  0  0  0  0  0  0  0
   32.4100   36.6388   62.6928 C   0  0  0  0  0  0  0  0  0  0  0  0
   32.5595   37.3884   61.3646 C   0  0  0  0  0  0  0  0  0  0  0  0
   31.3208   34.2959   58.6004 H   0  0  0  0  0  0  0  0  0  0  0  0
   31.9796   34.1663   56.9519 H   0  0  0  0  0  0  0  0  0  0  0  0
   32.6545   33.1673   58.2611 H   0  0  0  0  0  0  0  0  0  0  0  0
   33.5366   36.4384   56.0516 H   0  0  0  0  0  0  0  0  0  0  0  0
   32.8505   38.7580   55.5971 H   0  0  0  0  0  0  0  0  0  0  0  0
   31.7139   40.0740   57.3368 H   0  0  0  0  0  0  0  0  0  0  0  0
   31.2651   39.0798   59.5429 H   0  0  0  0  0  0  0  0  0  0  0  0
   30.0206   37.5109   60.6390 H   0  0  0  0  0  0  0  0  0  0  0  0
   29.9809   35.9924   59.7103 H   0  0  0  0  0  0  0  0  0  0  0  0
   30.5530   34.7005   61.7087 H   0  0  0  0  0  0  0  0  0  0  0  0
   29.1547   35.7377   62.0868 H   0  0  0  0  0  0  0  0  0  0  0  0
   31.9274   35.6191   66.2815 H   0  0  0  0  0  0  0  0  0  0  0  0
   33.0778   37.5191   67.7984 H   0  0  0  0  0  0  0  0  0  0  0  0
   32.9581   35.6978   62.6458 H   0  0  0  0  0  0  0  0  0  0  0  0
   32.7993   37.2523   63.5054 H   0  0  0  0  0  0  0  0  0  0  0  0
   33.6174   37.5003   61.1273 H   0  0  0  0  0  0  0  0  0  0  0  0
   32.0994   38.3729   61.4485 H   0  0  0  0  0  0  0  0  0  0  0  0
  1  2  1  0  0  0  0
  1 25  1  0  0  0  0
  1 26  1  0  0  0  0
  1 27  1  0  0  0  0
  2  3  1  0  0  0  0
  3  8  2  0  0  0  0
  3  4  1  0  0  0  0
  4  5  2  0  0  0  0
  4 28  1  0  0  0  0
  5  6  1  0  0  0  0
  5 29  1  0  0  0  0
  6  7  2  0  0  0  0
  6 30  1  0  0  0  0
  7  8  1  0  0  0  0
  7 31  1  0  0  0  0
  8  9  1  0  0  0  0
  9 24  1  0  0  0  0
  9 10  1  0  0  0  0
 10 11  1  0  0  0  0
 10 32  1  0  0  0  0
 10 33  1  0  0  0  0
 11 12  1  0  0  0  0
 11 34  1  0  0  0  0
 11 35  1  0  0  0  0
 12 13  1  0  0  0  0
 12 23  1  0  0  0  0
 13 14  2  0  0  0  0
 13 15  1  0  0  0  0
 15 22  1  0  0  0  0
 15 16  2  0  0  0  0
 16 17  1  0  0  0  0
 16 36  1  0  0  0  0
 17 18  2  0  0  0  0
 17 37  1  0  0  0  0
 18 19  1  0  0  0  0
 18 22  1  0  0  0  0
 19 20  2  0  0  0  0
 19 21  2  0  0  0  0
 23 24  1  0  0  0  0
 23 38  1  0  0  0  0
 23 39  1  0  0  0  0
 24 40  1  0  0  0  0
 24 41  1  0  0  0  0
M  END
$$$$
