ZINC000000001557      none
 OpenBabel11202420153D

 46 48  0  0  0  0  0  0  0  0999 V2000
   33.6751   38.6874   70.3607 C   0  0  0  0  0  0  0  0  0  0  0  0
   32.7319   38.7295   69.2353 N   0  3  0  0  0  0  0  0  0  0  0  0
   32.7732   40.0588   68.6112 C   0  0  0  0  0  0  0  0  0  0  0  0
   31.3788   38.4615   69.7229 O   0  0  0  0  0  1  0  0  0  0  0  0
   33.1060   37.7116   68.2444 C   0  0  0  0  0  0  0  0  0  0  0  0
   31.9027   37.4027   67.3513 C   0  0  0  0  0  0  0  0  0  0  0  0
   32.2924   36.3424   66.3193 C   0  0  0  0  0  0  0  0  0  0  0  0
   31.1402   36.0467   65.4642 N   0  0  0  0  0  0  0  0  0  0  0  0
   30.5391   37.0478   64.6916 C   0  0  0  0  0  0  0  0  0  0  0  0
   29.7474   38.0451   65.2330 C   0  0  0  0  0  0  0  0  0  0  0  0
   29.1335   38.9433   64.3746 C   0  0  0  0  0  0  0  0  0  0  0  0
   29.3164   38.8406   63.0074 C   0  0  0  0  0  0  0  0  0  0  0  0
   30.1282   37.8478   62.4781 C   0  0  0  0  0  0  0  0  0  0  0  0
   30.7395   36.9641   63.3382 C   0  0  0  0  0  0  0  0  0  0  0  0
   31.6713   35.8787   62.8662 C   0  0  0  0  0  0  0  0  0  0  0  0
   30.9737   34.5308   62.8303 C   0  0  0  0  0  0  0  0  0  0  0  0
   30.4910   34.0788   64.1907 C   0  0  0  0  0  0  0  0  0  0  0  0
   29.8672   32.8290   64.2029 C   0  0  0  0  0  0  0  0  0  0  0  0
   29.4009   32.2708   65.3706 C   0  0  0  0  0  0  0  0  0  0  0  0
   29.5464   32.9424   66.5713 C   0  0  0  0  0  0  0  0  0  0  0  0
   30.1493   34.1821   66.5792 C   0  0  0  0  0  0  0  0  0  0  0  0
   30.6058   34.7543   65.3950 C   0  0  0  0  0  0  0  0  0  0  0  0
   34.6832   38.8872   69.9973 H   0  0  0  0  0  0  0  0  0  0  0  0
   33.3978   39.4428   71.0958 H   0  0  0  0  0  0  0  0  0  0  0  0
   33.6447   37.7013   70.8237 H   0  0  0  0  0  0  0  0  0  0  0  0
   32.0732   40.0899   67.7761 H   0  0  0  0  0  0  0  0  0  0  0  0
   32.4956   40.8140   69.3463 H   0  0  0  0  0  0  0  0  0  0  0  0
   33.7813   40.2585   68.2479 H   0  0  0  0  0  0  0  0  0  0  0  0
   33.4201   36.8028   68.7580 H   0  0  0  0  0  0  0  0  0  0  0  0
   33.9266   38.0850   67.6320 H   0  0  0  0  0  0  0  0  0  0  0  0
   31.5886   38.3114   66.8378 H   0  0  0  0  0  0  0  0  0  0  0  0
   31.0820   37.0294   67.9638 H   0  0  0  0  0  0  0  0  0  0  0  0
   32.6063   35.4338   66.8329 H   0  0  0  0  0  0  0  0  0  0  0  0
   33.1130   36.7158   65.7069 H   0  0  0  0  0  0  0  0  0  0  0  0
   29.6143   38.1245   66.3018 H   0  0  0  0  0  0  0  0  0  0  0  0
   28.5085   39.7276   64.7754 H   0  0  0  0  0  0  0  0  0  0  0  0
   28.8236   39.5388   62.3469 H   0  0  0  0  0  0  0  0  0  0  0  0
   30.2775   37.7699   61.4113 H   0  0  0  0  0  0  0  0  0  0  0  0
   32.0266   36.1236   61.8653 H   0  0  0  0  0  0  0  0  0  0  0  0
   32.5236   35.8206   63.5432 H   0  0  0  0  0  0  0  0  0  0  0  0
   30.1179   34.5964   62.1583 H   0  0  0  0  0  0  0  0  0  0  0  0
   31.6683   33.7864   62.4411 H   0  0  0  0  0  0  0  0  0  0  0  0
   29.7487   32.2888   63.2753 H   0  0  0  0  0  0  0  0  0  0  0  0
   28.9197   31.3042   65.3501 H   0  0  0  0  0  0  0  0  0  0  0  0
   29.1916   32.5013   67.4910 H   0  0  0  0  0  0  0  0  0  0  0  0
   30.2687   34.7136   67.5118 H   0  0  0  0  0  0  0  0  0  0  0  0
  1  2  1  0  0  0  0
  1 23  1  0  0  0  0
  1 24  1  0  0  0  0
  1 25  1  0  0  0  0
  2  3  1  0  0  0  0
  2  4  1  0  0  0  0
  2  5  1  0  0  0  0
  3 26  1  0  0  0  0
  3 27  1  0  0  0  0
  3 28  1  0  0  0  0
  5  6  1  0  0  0  0
  5 29  1  0  0  0  0
  5 30  1  0  0  0  0
  6  7  1  0  0  0  0
  6 31  1  0  0  0  0
  6 32  1  0  0  0  0
  7  8  1  0  0  0  0
  7 33  1  0  0  0  0
  7 34  1  0  0  0  0
  8 22  1  0  0  0  0
  8  9  1  0  0  0  0
  9 14  2  0  0  0  0
  9 10  1  0  0  0  0
 10 11  2  0  0  0  0
 10 35  1  0  0  0  0
 11 12  1  0  0  0  0
 11 36  1  0  0  0  0
 12 13  2  0  0  0  0
 12 37  1  0  0  0  0
 13 14  1  0  0  0  0
 13 38  1  0  0  0  0
 14 15  1  0  0  0  0
 15 16  1  0  0  0  0
 15 39  1  0  0  0  0
 15 40  1  0  0  0  0
 16 17  1  0  0  0  0
 16 41  1  0  0  0  0
 16 42  1  0  0  0  0
 17 22  2  0  0  0  0
 17 18  1  0  0  0  0
 18 19  2  0  0  0  0
 18 43  1  0  0  0  0
 19 20  1  0  0  0  0
 19 44  1  0  0  0  0
 20 21  2  0  0  0  0
 20 45  1  0  0  0  0
 21 22  1  0  0  0  0
 21 46  1  0  0  0  0
M  CHG  1   2   1
M  END
$$$$
