ZINC000000023684      none
 OpenBabel11202420153D

 31 32  0  0  0  0  0  0  0  0999 V2000
   30.6843   41.9702   68.1182 C   0  0  0  0  0  0  0  0  0  0  0  0
   31.2586   40.8827   67.2472 C   0  0  0  0  0  0  0  0  0  0  0  0
   32.2272   40.2548   67.6203 O   0  0  0  0  0  0  0  0  0  0  0  0
   30.6927   40.6038   66.0562 N   0  0  0  0  0  0  0  0  0  0  0  0
   31.2199   39.5953   65.2542 C   0  0  0  0  0  0  0  0  0  0  0  0
   32.2478   38.8618   65.5489 N   0  0  0  0  0  0  0  0  0  0  0  0
   32.6058   37.9468   64.6660 C   0  0  0  0  0  0  0  0  0  0  0  0
   31.8601   37.8928   63.5536 C   0  0  0  0  0  0  0  0  0  0  0  0
   32.0981   36.7866   62.2029 S   0  0  0  0  0  0  0  0  0  0  0  0
   31.4870   37.7377   60.7842 C   0  0  0  0  0  0  0  0  0  0  0  0
   32.0520   37.1607   59.5118 C   0  0  0  0  0  0  0  0  0  0  0  0
   32.1086   35.8943   59.2127 N   0  0  0  0  0  0  0  0  0  0  0  0
   32.6744   35.7625   57.9999 C   0  0  0  0  0  0  0  0  0  0  0  0
   32.9305   34.4669   57.2741 C   0  0  0  0  0  0  0  0  0  0  0  0
   32.9694   36.9939   57.5517 C   0  0  0  0  0  0  0  0  0  0  0  0
   33.6161   37.3360   56.2341 C   0  0  0  0  0  0  0  0  0  0  0  0
   32.5734   37.8663   58.4994 O   0  0  0  0  0  0  0  0  0  0  0  0
   30.6006   39.1194   63.6754 S   0  0  0  0  0  0  0  0  0  0  0  0
   31.2673   42.0464   69.0361 H   0  0  0  0  0  0  0  0  0  0  0  0
   30.7207   42.9200   67.5847 H   0  0  0  0  0  0  0  0  0  0  0  0
   29.6497   41.7307   68.3635 H   0  0  0  0  0  0  0  0  0  0  0  0
   29.9183   41.1059   65.7577 H   0  0  0  0  0  0  0  0  0  0  0  0
   33.4465   37.2884   64.8281 H   0  0  0  0  0  0  0  0  0  0  0  0
   30.3986   37.6867   60.7543 H   0  0  0  0  0  0  0  0  0  0  0  0
   31.7995   38.7774   60.8819 H   0  0  0  0  0  0  0  0  0  0  0  0
   32.0652   34.2172   56.6602 H   0  0  0  0  0  0  0  0  0  0  0  0
   33.8086   34.5745   56.6375 H   0  0  0  0  0  0  0  0  0  0  0  0
   33.1028   33.6720   57.9996 H   0  0  0  0  0  0  0  0  0  0  0  0
   32.8448   37.4808   55.4776 H   0  0  0  0  0  0  0  0  0  0  0  0
   34.1965   38.2523   56.3413 H   0  0  0  0  0  0  0  0  0  0  0  0
   34.2746   36.5222   55.9305 H   0  0  0  0  0  0  0  0  0  0  0  0
  1  2  1  0  0  0  0
  1 19  1  0  0  0  0
  1 20  1  0  0  0  0
  1 21  1  0  0  0  0
  2  3  2  0  0  0  0
  2  4  1  0  0  0  0
  4  5  1  0  0  0  0
  4 22  1  0  0  0  0
  5 18  1  0  0  0  0
  5  6  2  0  0  0  0
  6  7  1  0  0  0  0
  7  8  2  0  0  0  0
  7 23  1  0  0  0  0
  8  9  1  0  0  0  0
  8 18  1  0  0  0  0
  9 10  1  0  0  0  0
 10 11  1  0  0  0  0
 10 24  1  0  0  0  0
 10 25  1  0  0  0  0
 11 17  1  0  0  0  0
 11 12  2  0  0  0  0
 12 13  1  0  0  0  0
 13 14  1  0  0  0  0
 13 15  2  0  0  0  0
 14 26  1  0  0  0  0
 14 27  1  0  0  0  0
 14 28  1  0  0  0  0
 15 16  1  0  0  0  0
 15 17  1  0  0  0  0
 16 29  1  0  0  0  0
 16 30  1  0  0  0  0
 16 31  1  0  0  0  0
M  END
$$$$
