ZINC000000028114      none
 OpenBabel11202420163D

 26 27  0  0  0  0  0  0  0  0999 V2000
   32.3237   35.8610   63.5104 C   0  0  0  0  0  0  0  0  0  0  0  0
   31.8767   34.6635   62.6694 C   0  0  0  0  0  0  0  0  0  0  0  0
   31.1932   35.1364   61.4789 O   0  0  0  0  0  0  0  0  0  0  0  0
   31.7245   34.7893   60.2896 C   0  0  0  0  0  0  0  0  0  0  0  0
   31.8379   33.6158   59.9940 O   0  0  0  0  0  0  0  0  0  0  0  0
   32.1672   35.8307   59.3497 C   0  0  0  0  0  0  0  0  0  0  0  0
   32.7153   35.4882   58.1246 C   0  0  0  0  0  0  0  0  0  0  0  0
   33.1338   36.5244   57.2524 C   0  0  0  0  0  0  0  0  0  0  0  0
   33.6869   36.2131   56.0008 C   0  0  0  0  0  0  0  0  0  0  0  0
   34.0822   37.2161   55.1638 C   0  0  0  0  0  0  0  0  0  0  0  0
   33.9361   38.5447   55.5388 C   0  0  0  0  0  0  0  0  0  0  0  0
   33.3897   38.8735   56.7609 C   0  0  0  0  0  0  0  0  0  0  0  0
   32.9790   37.8699   57.6318 C   0  0  0  0  0  0  0  0  0  0  0  0
   32.4437   38.1951   58.8279 O   0  0  0  0  0  0  0  0  0  0  0  0
   32.0365   37.2517   59.6932 C   0  0  0  0  0  0  0  0  0  0  0  0
   31.5580   37.5758   60.7639 O   0  0  0  0  0  0  0  0  0  0  0  0
   33.0011   36.4832   62.9255 H   0  0  0  0  0  0  0  0  0  0  0  0
   31.4515   36.4470   63.8006 H   0  0  0  0  0  0  0  0  0  0  0  0
   32.8368   35.5060   64.4042 H   0  0  0  0  0  0  0  0  0  0  0  0
   31.1993   34.0414   63.2543 H   0  0  0  0  0  0  0  0  0  0  0  0
   32.7488   34.0777   62.3792 H   0  0  0  0  0  0  0  0  0  0  0  0
   32.8258   34.4519   57.8414 H   0  0  0  0  0  0  0  0  0  0  0  0
   33.8036   35.1817   55.7023 H   0  0  0  0  0  0  0  0  0  0  0  0
   34.5116   36.9744   54.2027 H   0  0  0  0  0  0  0  0  0  0  0  0
   34.2533   39.3281   54.8665 H   0  0  0  0  0  0  0  0  0  0  0  0
   33.2800   39.9106   57.0420 H   0  0  0  0  0  0  0  0  0  0  0  0
  1  2  1  0  0  0  0
  1 17  1  0  0  0  0
  1 18  1  0  0  0  0
  1 19  1  0  0  0  0
  2  3  1  0  0  0  0
  2 20  1  0  0  0  0
  2 21  1  0  0  0  0
  3  4  1  0  0  0  0
  4  5  2  0  0  0  0
  4  6  1  0  0  0  0
  6 15  1  0  0  0  0
  6  7  2  0  0  0  0
  7  8  1  0  0  0  0
  7 22  1  0  0  0  0
  8 13  2  0  0  0  0
  8  9  1  0  0  0  0
  9 10  2  0  0  0  0
  9 23  1  0  0  0  0
 10 11  1  0  0  0  0
 10 24  1  0  0  0  0
 11 12  2  0  0  0  0
 11 25  1  0  0  0  0
 12 13  1  0  0  0  0
 12 26  1  0  0  0  0
 13 14  1  0  0  0  0
 14 15  1  0  0  0  0
 15 16  2  0  0  0  0
M  END
$$$$
