ZINC000000029162      none
 OpenBabel11202420163D

 35 36  0  0  0  0  0  0  0  0999 V2000
   34.8008   33.0302   56.1990 C   0  0  0  0  0  0  0  0  0  0  0  0
   33.4200   32.9199   55.5493 C   0  0  0  0  0  0  0  0  0  0  0  0
   33.2858   33.9671   54.4740 C   0  0  0  0  0  0  0  0  0  0  0  0
   33.6682   33.6805   53.1781 C   0  0  0  0  0  0  0  0  0  0  0  0
   33.5400   34.6390   52.1899 C   0  0  0  0  0  0  0  0  0  0  0  0
   33.0342   35.8893   52.4962 C   0  0  0  0  0  0  0  0  0  0  0  0
   32.6550   36.1840   53.7909 C   0  0  0  0  0  0  0  0  0  0  0  0
   32.7820   35.2232   54.7860 C   0  0  0  0  0  0  0  0  0  0  0  0
   32.3989   35.5184   56.0982 N   0  0  0  0  0  0  0  0  0  0  0  0
   32.9980   36.5249   56.7648 C   0  0  0  0  0  0  0  0  0  0  0  0
   33.8715   37.1760   56.2256 O   0  0  0  0  0  0  0  0  0  0  0  0
   32.5928   36.8371   58.1516 C   0  0  0  0  0  0  0  0  0  0  0  0
   32.1087   35.8271   58.9849 C   0  0  0  0  0  0  0  0  0  0  0  0
   31.7373   36.1242   60.2797 C   0  0  0  0  0  0  0  0  0  0  0  0
   31.8329   37.4224   60.7495 C   0  0  0  0  0  0  0  0  0  0  0  0
   32.3068   38.4290   59.9274 C   0  0  0  0  0  0  0  0  0  0  0  0
   32.6872   38.1442   58.6320 C   0  0  0  0  0  0  0  0  0  0  0  0
   33.2027   39.2420   57.7377 C   0  0  0  0  0  0  0  0  0  0  0  0
   35.5712   32.8758   55.4436 H   0  0  0  0  0  0  0  0  0  0  0  0
   34.9172   34.0204   56.6396 H   0  0  0  0  0  0  0  0  0  0  0  0
   34.8979   32.2727   56.9769 H   0  0  0  0  0  0  0  0  0  0  0  0
   32.6497   33.0742   56.3050 H   0  0  0  0  0  0  0  0  0  0  0  0
   33.3037   31.9298   55.1089 H   0  0  0  0  0  0  0  0  0  0  0  0
   34.0636   32.7052   52.9355 H   0  0  0  0  0  0  0  0  0  0  0  0
   33.8360   34.4109   51.1765 H   0  0  0  0  0  0  0  0  0  0  0  0
   32.9361   36.6359   51.7222 H   0  0  0  0  0  0  0  0  0  0  0  0
   32.2597   37.1603   54.0293 H   0  0  0  0  0  0  0  0  0  0  0  0
   31.7019   34.9988   56.5284 H   0  0  0  0  0  0  0  0  0  0  0  0
   32.0291   34.8144   58.6180 H   0  0  0  0  0  0  0  0  0  0  0  0
   31.3672   35.3428   60.9269 H   0  0  0  0  0  0  0  0  0  0  0  0
   31.5365   37.6506   61.7626 H   0  0  0  0  0  0  0  0  0  0  0  0
   32.3790   39.4400   60.3002 H   0  0  0  0  0  0  0  0  0  0  0  0
   32.3935   39.6042   57.1034 H   0  0  0  0  0  0  0  0  0  0  0  0
   33.5797   40.0619   58.3491 H   0  0  0  0  0  0  0  0  0  0  0  0
   34.0078   38.8543   57.1134 H   0  0  0  0  0  0  0  0  0  0  0  0
  1  2  1  0  0  0  0
  1 19  1  0  0  0  0
  1 20  1  0  0  0  0
  1 21  1  0  0  0  0
  2  3  1  0  0  0  0
  2 22  1  0  0  0  0
  2 23  1  0  0  0  0
  3  8  2  0  0  0  0
  3  4  1  0  0  0  0
  4  5  2  0  0  0  0
  4 24  1  0  0  0  0
  5  6  1  0  0  0  0
  5 25  1  0  0  0  0
  6  7  2  0  0  0  0
  6 26  1  0  0  0  0
  7  8  1  0  0  0  0
  7 27  1  0  0  0  0
  8  9  1  0  0  0  0
  9 10  1  0  0  0  0
  9 28  1  0  0  0  0
 10 11  2  0  0  0  0
 10 12  1  0  0  0  0
 12 17  2  0  0  0  0
 12 13  1  0  0  0  0
 13 14  2  0  0  0  0
 13 29  1  0  0  0  0
 14 15  1  0  0  0  0
 14 30  1  0  0  0  0
 15 16  2  0  0  0  0
 15 31  1  0  0  0  0
 16 17  1  0  0  0  0
 16 32  1  0  0  0  0
 17 18  1  0  0  0  0
 18 33  1  0  0  0  0
 18 34  1  0  0  0  0
 18 35  1  0  0  0  0
M  END
$$$$
