ZINC000000037563      none
 OpenBabel11202420153D

 47 48  0  0  0  0  0  0  0  0999 V2000
   28.5613   38.5512   67.4118 C   0  0  0  0  0  0  0  0  0  0  0  0
   29.5933   39.2723   66.7360 O   0  0  0  0  0  0  0  0  0  0  0  0
   29.9691   38.8117   65.5128 C   0  0  0  0  0  0  0  0  0  0  0  0
   29.3347   39.2752   64.3715 C   0  0  0  0  0  0  0  0  0  0  0  0
   29.7220   38.8106   63.1284 C   0  0  0  0  0  0  0  0  0  0  0  0
   30.7343   37.8750   63.0213 C   0  0  0  0  0  0  0  0  0  0  0  0
   31.1482   37.3672   61.6642 C   0  0  0  0  0  0  0  0  0  0  0  0
   30.3220   36.1294   61.3089 C   0  0  0  0  0  0  0  0  0  0  0  0
   30.7245   35.6359   59.9896 N   0  0  0  0  0  0  0  0  0  0  0  0
   31.7148   34.7279   59.8831 C   0  0  0  0  0  0  0  0  0  0  0  0
   32.2727   34.3193   60.8795 O   0  0  0  0  0  0  0  0  0  0  0  0
   32.1288   34.2201   58.5260 C   0  0  0  0  0  0  0  0  0  0  0  0
   33.1622   35.0552   57.9998 O   0  0  0  0  0  0  0  0  0  0  0  0
   33.2281   35.1775   56.6480 C   0  0  0  0  0  0  0  0  0  0  0  0
   33.7104   36.3472   56.0788 C   0  0  0  0  0  0  0  0  0  0  0  0
   33.7706   36.4713   54.7043 C   0  0  0  0  0  0  0  0  0  0  0  0
   33.3612   35.4269   53.8961 C   0  0  0  0  0  0  0  0  0  0  0  0
   33.4335   35.5629   52.3970 C   0  0  0  0  0  0  0  0  0  0  0  0
   32.8808   34.2600   54.4608 C   0  0  0  0  0  0  0  0  0  0  0  0
   32.8130   34.1329   55.8347 C   0  0  0  0  0  0  0  0  0  0  0  0
   31.3712   37.4084   64.1561 C   0  0  0  0  0  0  0  0  0  0  0  0
   30.9917   37.8742   65.4047 C   0  0  0  0  0  0  0  0  0  0  0  0
   31.6171   37.4160   66.5220 O   0  0  0  0  0  0  0  0  0  0  0  0
   32.6576   36.4545   66.3348 C   0  0  0  0  0  0  0  0  0  0  0  0
   27.6558   38.5585   66.8052 H   0  0  0  0  0  0  0  0  0  0  0  0
   28.8825   37.5220   67.5724 H   0  0  0  0  0  0  0  0  0  0  0  0
   28.3584   39.0226   68.3734 H   0  0  0  0  0  0  0  0  0  0  0  0
   28.5410   40.0032   64.4526 H   0  0  0  0  0  0  0  0  0  0  0  0
   29.2300   39.1762   62.2392 H   0  0  0  0  0  0  0  0  0  0  0  0
   32.2062   37.1053   61.6814 H   0  0  0  0  0  0  0  0  0  0  0  0
   30.9783   38.1438   60.9184 H   0  0  0  0  0  0  0  0  0  0  0  0
   29.2641   36.3914   61.2916 H   0  0  0  0  0  0  0  0  0  0  0  0
   30.4920   35.3529   62.0547 H   0  0  0  0  0  0  0  0  0  0  0  0
   30.2784   35.9625   59.1927 H   0  0  0  0  0  0  0  0  0  0  0  0
   31.2706   34.2373   57.8543 H   0  0  0  0  0  0  0  0  0  0  0  0
   32.4984   33.1987   58.6174 H   0  0  0  0  0  0  0  0  0  0  0  0
   34.0341   37.1617   56.7097 H   0  0  0  0  0  0  0  0  0  0  0  0
   34.1413   37.3836   54.2607 H   0  0  0  0  0  0  0  0  0  0  0  0
   32.4989   35.9825   52.0246 H   0  0  0  0  0  0  0  0  0  0  0  0
   34.2592   36.2230   52.1313 H   0  0  0  0  0  0  0  0  0  0  0  0
   33.5946   34.5817   51.9504 H   0  0  0  0  0  0  0  0  0  0  0  0
   32.5577   33.4471   53.8272 H   0  0  0  0  0  0  0  0  0  0  0  0
   32.4371   33.2215   56.2754 H   0  0  0  0  0  0  0  0  0  0  0  0
   32.1643   36.6806   64.0694 H   0  0  0  0  0  0  0  0  0  0  0  0
   33.0713   36.1737   67.3035 H   0  0  0  0  0  0  0  0  0  0  0  0
   32.2515   35.5706   65.8431 H   0  0  0  0  0  0  0  0  0  0  0  0
   33.4438   36.8861   65.7154 H   0  0  0  0  0  0  0  0  0  0  0  0
  1  2  1  0  0  0  0
  1 25  1  0  0  0  0
  1 26  1  0  0  0  0
  1 27  1  0  0  0  0
  2  3  1  0  0  0  0
  3 22  2  0  0  0  0
  3  4  1  0  0  0  0
  4  5  2  0  0  0  0
  4 28  1  0  0  0  0
  5  6  1  0  0  0  0
  5 29  1  0  0  0  0
  6  7  1  0  0  0  0
  6 21  2  0  0  0  0
  7  8  1  0  0  0  0
  7 30  1  0  0  0  0
  7 31  1  0  0  0  0
  8  9  1  0  0  0  0
  8 32  1  0  0  0  0
  8 33  1  0  0  0  0
  9 10  1  0  0  0  0
  9 34  1  0  0  0  0
 10 11  2  0  0  0  0
 10 12  1  0  0  0  0
 12 13  1  0  0  0  0
 12 35  1  0  0  0  0
 12 36  1  0  0  0  0
 13 14  1  0  0  0  0
 14 20  2  0  0  0  0
 14 15  1  0  0  0  0
 15 16  2  0  0  0  0
 15 37  1  0  0  0  0
 16 17  1  0  0  0  0
 16 38  1  0  0  0  0
 17 18  1  0  0  0  0
 17 19  2  0  0  0  0
 18 39  1  0  0  0  0
 18 40  1  0  0  0  0
 18 41  1  0  0  0  0
 19 20  1  0  0  0  0
 19 42  1  0  0  0  0
 20 43  1  0  0  0  0
 21 22  1  0  0  0  0
 21 44  1  0  0  0  0
 22 23  1  0  0  0  0
 23 24  1  0  0  0  0
 24 45  1  0  0  0  0
 24 46  1  0  0  0  0
 24 47  1  0  0  0  0
M  END
$$$$
