ZINC000000034920      none
 OpenBabel11202420153D

 33 34  0  0  0  0  0  0  0  0999 V2000
   33.4925   36.6220   65.2433 C   0  0  0  0  0  0  0  0  0  0  0  0
   32.7862   37.7364   64.6942 O   0  0  0  0  0  0  0  0  0  0  0  0
   31.4382   37.6940   64.7477 C   0  0  0  0  0  0  0  0  0  0  0  0
   30.8788   36.7359   65.2474 O   0  0  0  0  0  0  0  0  0  0  0  0
   30.6502   38.7990   64.2052 C   0  0  0  0  0  0  0  0  0  0  0  0
   30.2592   38.7800   62.9042 C   0  0  0  0  0  0  0  0  0  0  0  0
   30.5469   37.6113   62.0702 C   0  0  0  0  0  0  0  0  0  0  0  0
   30.1290   36.3291   62.2871 C   0  0  0  0  0  0  0  0  0  0  0  0
   30.5929   35.5233   61.2969 N   0  0  0  0  0  0  0  0  0  0  0  0
   30.4243   34.5701   61.2342 H   0  0  0  0  0  0  0  0  0  0  0  0
   31.3429   36.2511   60.3962 C   0  0  0  0  0  0  0  0  0  0  0  0
   32.0277   35.9104   59.2341 C   0  0  0  0  0  0  0  0  0  0  0  0
   32.7043   36.8790   58.5256 C   0  0  0  0  0  0  0  0  0  0  0  0
   32.7109   38.1970   58.9593 C   0  0  0  0  0  0  0  0  0  0  0  0
   32.0394   38.5541   60.1079 C   0  0  0  0  0  0  0  0  0  0  0  0
   31.3507   37.5852   60.8336 C   0  0  0  0  0  0  0  0  0  0  0  0
   30.2976   39.8798   65.0282 N   0  0  0  0  0  0  0  0  0  0  0  0
   30.6856   39.8987   66.3188 C   0  0  0  0  0  0  0  0  0  0  0  0
   30.3069   41.0592   67.2026 C   0  0  0  0  0  0  0  0  0  0  0  0
   31.3397   38.9816   66.7689 O   0  0  0  0  0  0  0  0  0  0  0  0
   33.2443   36.5193   66.2997 H   0  0  0  0  0  0  0  0  0  0  0  0
   33.2067   35.7136   64.7129 H   0  0  0  0  0  0  0  0  0  0  0  0
   34.5651   36.7833   65.1360 H   0  0  0  0  0  0  0  0  0  0  0  0
   29.7320   39.6251   62.4864 H   0  0  0  0  0  0  0  0  0  0  0  0
   29.5204   36.0055   63.1185 H   0  0  0  0  0  0  0  0  0  0  0  0
   32.0293   34.8873   58.8879 H   0  0  0  0  0  0  0  0  0  0  0  0
   33.2348   36.6099   57.6242 H   0  0  0  0  0  0  0  0  0  0  0  0
   33.2450   38.9463   58.3940 H   0  0  0  0  0  0  0  0  0  0  0  0
   32.0460   39.5806   60.4435 H   0  0  0  0  0  0  0  0  0  0  0  0
   29.7745   40.6133   64.6683 H   0  0  0  0  0  0  0  0  0  0  0  0
   29.2210   41.1384   67.2529 H   0  0  0  0  0  0  0  0  0  0  0  0
   30.7064   40.8988   68.2039 H   0  0  0  0  0  0  0  0  0  0  0  0
   30.7196   41.9799   66.7900 H   0  0  0  0  0  0  0  0  0  0  0  0
  1  2  1  0  0  0  0
  1 21  1  0  0  0  0
  1 22  1  0  0  0  0
  1 23  1  0  0  0  0
  2  3  1  0  0  0  0
  3  4  2  0  0  0  0
  3  5  1  0  0  0  0
  5  6  2  0  0  0  0
  5 17  1  0  0  0  0
  6  7  1  0  0  0  0
  6 24  1  0  0  0  0
  7 16  1  0  0  0  0
  7  8  2  0  0  0  0
  8  9  1  0  0  0  0
  8 25  1  0  0  0  0
  9 10  1  0  0  0  0
  9 11  1  0  0  0  0
 11 16  2  0  0  0  0
 11 12  1  0  0  0  0
 12 13  2  0  0  0  0
 12 26  1  0  0  0  0
 13 14  1  0  0  0  0
 13 27  1  0  0  0  0
 14 15  2  0  0  0  0
 14 28  1  0  0  0  0
 15 16  1  0  0  0  0
 15 29  1  0  0  0  0
 17 18  1  0  0  0  0
 17 30  1  0  0  0  0
 18 19  1  0  0  0  0
 18 20  2  0  0  0  0
 19 31  1  0  0  0  0
 19 32  1  0  0  0  0
 19 33  1  0  0  0  0
M  END
$$$$
