ZINC000000037925      none
 OpenBabel11202420153D

 41 43  0  0  1  0  0  0  0  0999 V2000
   33.9273   32.9222   56.2502 C   0  0  0  0  0  0  0  0  0  0  0  0
   33.8274   34.1549   57.0110 O   0  0  0  0  0  0  0  0  0  0  0  0
   32.9937   35.1025   56.5350 C   0  0  0  0  0  0  0  0  0  0  0  0
   32.3673   34.9030   55.5116 O   0  0  0  0  0  0  0  0  0  0  0  0
   32.8426   36.3711   57.2504 C   0  0  0  0  0  0  0  0  0  0  0  0
   33.1330   37.5871   56.6944 C   0  0  0  0  0  0  0  0  0  0  0  0
   33.5994   37.7714   55.4035 N   0  0  0  0  0  0  0  0  0  0  0  0
   34.4012   38.8168   55.1195 C   0  0  0  0  0  0  0  0  0  0  0  0
   34.7150   39.5975   55.9962 O   0  0  0  0  0  0  0  0  0  0  0  0
   34.8998   39.0138   53.7391 C   0  0  0  0  0  0  0  0  0  0  0  0
   35.0524   37.9301   52.8685 C   0  0  0  0  0  0  0  0  0  0  0  0
   35.5153   38.1602   51.5875 C   0  0  0  0  0  0  0  0  0  0  0  0
   35.8215   39.3781   51.1869 N   0  0  0  0  0  0  0  0  0  0  0  0
   35.6977   40.4261   51.9769 C   0  0  0  0  0  0  0  0  0  0  0  0
   35.2366   40.2881   53.2716 C   0  0  0  0  0  0  0  0  0  0  0  0
   32.8419   38.8424   57.8068 S   0  0  0  0  0  0  0  0  0  0  0  0
   32.3162   37.7269   59.0568 C   0  0  0  0  0  0  0  0  0  0  0  0
   32.3699   36.4635   58.6201 C   0  0  0  0  0  0  0  0  0  0  0  0
   31.9774   35.2645   59.4686 C   0  0  0  0  0  0  0  0  0  0  0  0
   31.9478   35.6862   60.9392 C   0  0  0  0  0  0  0  0  0  0  0  0
   31.1051   36.9608   61.0776 C   0  0  1  0  0  0  0  0  0  0  0  0
   30.1520   36.8240   60.5669 H   0  0  0  0  0  0  0  0  0  0  0  0
   30.8551   37.2519   62.5586 C   0  0  0  0  0  0  0  0  0  0  0  0
   31.8613   38.1327   60.4457 C   0  0  0  0  0  0  0  0  0  0  0  0
   32.9470   32.4489   56.1951 H   0  0  0  0  0  0  0  0  0  0  0  0
   34.2806   33.1443   55.2432 H   0  0  0  0  0  0  0  0  0  0  0  0
   34.6292   32.2481   56.7411 H   0  0  0  0  0  0  0  0  0  0  0  0
   33.3488   37.1482   54.7038 H   0  0  0  0  0  0  0  0  0  0  0  0
   34.8079   36.9289   53.1914 H   0  0  0  0  0  0  0  0  0  0  0  0
   35.6321   37.3303   50.9062 H   0  0  0  0  0  0  0  0  0  0  0  0
   35.9600   41.4062   51.6065 H   0  0  0  0  0  0  0  0  0  0  0  0
   35.1373   41.1512   53.9131 H   0  0  0  0  0  0  0  0  0  0  0  0
   30.9901   34.9127   59.1693 H   0  0  0  0  0  0  0  0  0  0  0  0
   32.7066   34.4660   59.3320 H   0  0  0  0  0  0  0  0  0  0  0  0
   31.5086   34.8885   61.5382 H   0  0  0  0  0  0  0  0  0  0  0  0
   32.9636   35.8833   61.2821 H   0  0  0  0  0  0  0  0  0  0  0  0
   30.2612   38.1609   62.6551 H   0  0  0  0  0  0  0  0  0  0  0  0
   30.3167   36.4170   63.0073 H   0  0  0  0  0  0  0  0  0  0  0  0
   31.8090   37.3853   63.0689 H   0  0  0  0  0  0  0  0  0  0  0  0
   32.7292   38.3797   61.0570 H   0  0  0  0  0  0  0  0  0  0  0  0
   31.2021   38.9979   60.3763 H   0  0  0  0  0  0  0  0  0  0  0  0
  1  2  1  0  0  0  0
  1 25  1  0  0  0  0
  1 26  1  0  0  0  0
  1 27  1  0  0  0  0
  2  3  1  0  0  0  0
  3  4  2  0  0  0  0
  3  5  1  0  0  0  0
  5 18  1  0  0  0  0
  5  6  2  0  0  0  0
  6  7  1  0  0  0  0
  6 16  1  0  0  0  0
  7  8  1  0  0  0  0
  7 28  1  0  0  0  0
  8  9  2  0  0  0  0
  8 10  1  0  0  0  0
 10 15  2  0  0  0  0
 10 11  1  0  0  0  0
 11 12  2  0  0  0  0
 11 29  1  0  0  0  0
 12 13  1  0  0  0  0
 12 30  1  0  0  0  0
 13 14  2  0  0  0  0
 14 15  1  0  0  0  0
 14 31  1  0  0  0  0
 15 32  1  0  0  0  0
 16 17  1  0  0  0  0
 17 24  1  0  0  0  0
 17 18  2  0  0  0  0
 18 19  1  0  0  0  0
 19 20  1  0  0  0  0
 19 33  1  0  0  0  0
 19 34  1  0  0  0  0
 20 21  1  0  0  0  0
 20 35  1  0  0  0  0
 20 36  1  0  0  0  0
 21 22  1  6  0  0  0
 21 23  1  0  0  0  0
 21 24  1  0  0  0  0
 23 37  1  0  0  0  0
 23 38  1  0  0  0  0
 23 39  1  0  0  0  0
 24 40  1  0  0  0  0
 24 41  1  0  0  0  0
M  END
$$$$
