ZINC000000039975      none
 OpenBabel11202420153D

 24 25  0  0  0  0  0  0  0  0999 V2000
   35.2564   39.2586   52.8380 C   0  0  0  0  0  0  0  0  0  0  0  0
   34.6585   38.7148   54.1099 C   0  0  0  0  0  0  0  0  0  0  0  0
   34.2272   39.4412   55.0701 N   0  0  0  0  0  0  0  0  0  0  0  0
   33.7158   38.8185   56.1499 C   0  0  0  0  0  0  0  0  0  0  0  0
   33.1782   39.3663   57.3327 C   0  0  0  0  0  0  0  0  0  0  0  0
   32.7075   38.5548   58.3185 C   0  0  0  0  0  0  0  0  0  0  0  0
   32.7472   37.1687   58.1789 C   0  0  0  0  0  0  0  0  0  0  0  0
   32.2598   36.3467   59.2024 N   0  0  0  0  0  0  0  0  0  0  0  0
   32.3181   36.7598   60.4840 C   0  0  0  0  0  0  0  0  0  0  0  0
   32.7975   37.8415   60.7512 O   0  0  0  0  0  0  0  0  0  0  0  0
   31.7880   35.8778   61.5849 C   0  0  0  0  0  0  0  0  0  0  0  0
   31.2901   34.6922   61.0335 F   0  0  0  0  0  0  0  0  0  0  0  0
   32.8204   35.5781   62.4801 F   0  0  0  0  0  0  0  0  0  0  0  0
   30.7615   36.5439   62.2627 F   0  0  0  0  0  0  0  0  0  0  0  0
   33.2738   36.6060   57.0310 C   0  0  0  0  0  0  0  0  0  0  0  0
   33.7538   37.4264   56.0129 C   0  0  0  0  0  0  0  0  0  0  0  0
   34.4711   37.0529   54.4487 S   0  0  0  0  0  0  0  0  0  0  0  0
   36.3333   39.3727   52.9626 H   0  0  0  0  0  0  0  0  0  0  0  0
   35.0567   38.5683   52.0184 H   0  0  0  0  0  0  0  0  0  0  0  0
   34.8120   40.2281   52.6130 H   0  0  0  0  0  0  0  0  0  0  0  0
   33.1401   40.4384   57.4575 H   0  0  0  0  0  0  0  0  0  0  0  0
   32.2990   38.9897   59.2188 H   0  0  0  0  0  0  0  0  0  0  0  0
   31.8764   35.4816   58.9887 H   0  0  0  0  0  0  0  0  0  0  0  0
   33.3093   35.5322   56.9222 H   0  0  0  0  0  0  0  0  0  0  0  0
  1  2  1  0  0  0  0
  1 18  1  0  0  0  0
  1 19  1  0  0  0  0
  1 20  1  0  0  0  0
  2 17  1  0  0  0  0
  2  3  2  0  0  0  0
  3  4  1  0  0  0  0
  4 16  2  0  0  0  0
  4  5  1  0  0  0  0
  5  6  2  0  0  0  0
  5 21  1  0  0  0  0
  6  7  1  0  0  0  0
  6 22  1  0  0  0  0
  7  8  1  0  0  0  0
  7 15  2  0  0  0  0
  8  9  1  0  0  0  0
  8 23  1  0  0  0  0
  9 10  2  0  0  0  0
  9 11  1  0  0  0  0
 11 12  1  0  0  0  0
 11 13  1  0  0  0  0
 11 14  1  0  0  0  0
 15 16  1  0  0  0  0
 15 24  1  0  0  0  0
 16 17  1  0  0  0  0
M  END
$$$$
