ZINC000000001318      none
 OpenBabel11202420153D

 19 20  0  0  0  0  0  0  0  0999 V2000
   32.2842   39.1073   60.5491 O   0  0  0  0  0  0  0  0  0  0  0  0
   32.6203   38.7119   59.2930 C   0  0  0  0  0  0  0  0  0  0  0  0
   33.1704   39.6383   58.4021 C   0  0  0  0  0  0  0  0  0  0  0  0
   33.5124   39.2742   57.1370 C   0  0  0  0  0  0  0  0  0  0  0  0
   33.3216   37.9459   56.7179 C   0  0  0  0  0  0  0  0  0  0  0  0
   33.6683   37.5347   55.4196 C   0  0  0  0  0  0  0  0  0  0  0  0
   33.4698   36.2407   55.0472 C   0  0  0  0  0  0  0  0  0  0  0  0
   32.9259   35.3138   55.9347 C   0  0  0  0  0  0  0  0  0  0  0  0
   32.5782   35.6757   57.1997 C   0  0  0  0  0  0  0  0  0  0  0  0
   32.7688   37.0031   57.6205 C   0  0  0  0  0  0  0  0  0  0  0  0
   32.4212   37.4128   58.9189 C   0  0  0  0  0  0  0  0  0  0  0  0
   31.6816   36.1738   60.1412 Br  0  0  0  0  0  0  0  0  0  0  0  0
   32.4589   40.0415   60.7272 H   0  0  0  0  0  0  0  0  0  0  0  0
   33.3228   40.6586   58.7217 H   0  0  0  0  0  0  0  0  0  0  0  0
   33.9331   40.0016   56.4585 H   0  0  0  0  0  0  0  0  0  0  0  0
   34.0901   38.2419   54.7208 H   0  0  0  0  0  0  0  0  0  0  0  0
   33.7376   35.9275   54.0489 H   0  0  0  0  0  0  0  0  0  0  0  0
   32.7784   34.2931   55.6137 H   0  0  0  0  0  0  0  0  0  0  0  0
   32.1584   34.9465   57.8768 H   0  0  0  0  0  0  0  0  0  0  0  0
  1  2  1  0  0  0  0
  1 13  1  0  0  0  0
  2 11  2  0  0  0  0
  2  3  1  0  0  0  0
  3  4  2  0  0  0  0
  3 14  1  0  0  0  0
  4  5  1  0  0  0  0
  4 15  1  0  0  0  0
  5 10  2  0  0  0  0
  5  6  1  0  0  0  0
  6  7  2  0  0  0  0
  6 16  1  0  0  0  0
  7  8  1  0  0  0  0
  7 17  1  0  0  0  0
  8  9  2  0  0  0  0
  8 18  1  0  0  0  0
  9 10  1  0  0  0  0
  9 19  1  0  0  0  0
 10 11  1  0  0  0  0
 11 12  1  0  0  0  0
M  END
$$$$
