ZINC000000002248      none
 OpenBabel11202420153D

 31 32  0  0  0  0  0  0  0  0999 V2000
   31.8739   33.7336   60.8341 C   0  0  0  0  0  0  0  0  0  0  0  0
   31.7693   35.1991   60.4988 C   0  0  0  0  0  0  0  0  0  0  0  0
   32.2212   35.6631   59.2790 C   0  0  0  0  0  0  0  0  0  0  0  0
   32.1308   37.0086   58.9728 C   0  0  0  0  0  0  0  0  0  0  0  0
   31.5784   37.8920   59.8819 C   0  0  0  0  0  0  0  0  0  0  0  0
   31.1246   37.4345   61.1035 C   0  0  0  0  0  0  0  0  0  0  0  0
   30.5276   38.3989   62.0958 C   0  0  0  0  0  0  0  0  0  0  0  0
   31.2189   36.0846   61.4162 C   0  0  0  0  0  0  0  0  0  0  0  0
   30.7598   35.6179   62.6523 N   0  0  0  0  0  0  0  0  0  0  0  0
   31.3097   36.1021   63.8185 C   0  0  0  0  0  0  0  0  0  0  0  0
   30.5341   36.6891   64.6499 N   0  0  0  0  0  0  0  0  0  0  0  0
   30.8686   37.3034   65.9164 C   0  0  0  0  0  0  0  0  0  0  0  0
   32.1974   36.8093   66.4769 C   0  0  0  0  0  0  0  0  0  0  0  0
   33.2982   37.0455   65.4336 C   0  0  0  0  0  0  0  0  0  0  0  0
   33.0339   35.8695   64.0771 S   0  0  0  0  0  0  0  0  0  0  0  0
   32.8300   33.5395   61.3203 H   0  0  0  0  0  0  0  0  0  0  0  0
   31.0617   33.4557   61.5058 H   0  0  0  0  0  0  0  0  0  0  0  0
   31.8058   33.1457   59.9188 H   0  0  0  0  0  0  0  0  0  0  0  0
   32.6497   34.9751   58.5652 H   0  0  0  0  0  0  0  0  0  0  0  0
   32.4886   37.3696   58.0198 H   0  0  0  0  0  0  0  0  0  0  0  0
   31.5057   38.9417   59.6383 H   0  0  0  0  0  0  0  0  0  0  0  0
   31.2922   38.7056   62.8095 H   0  0  0  0  0  0  0  0  0  0  0  0
   30.1500   39.2751   61.5688 H   0  0  0  0  0  0  0  0  0  0  0  0
   29.7088   37.9134   62.6267 H   0  0  0  0  0  0  0  0  0  0  0  0
   30.0543   34.9533   62.6882 H   0  0  0  0  0  0  0  0  0  0  0  0
   30.9238   38.3835   65.7801 H   0  0  0  0  0  0  0  0  0  0  0  0
   30.0803   37.0798   66.6353 H   0  0  0  0  0  0  0  0  0  0  0  0
   32.4352   37.3576   67.3885 H   0  0  0  0  0  0  0  0  0  0  0  0
   32.1266   35.7444   66.6979 H   0  0  0  0  0  0  0  0  0  0  0  0
   33.2380   38.0670   65.0582 H   0  0  0  0  0  0  0  0  0  0  0  0
   34.2761   36.8741   65.8838 H   0  0  0  0  0  0  0  0  0  0  0  0
  1  2  1  0  0  0  0
  1 16  1  0  0  0  0
  1 17  1  0  0  0  0
  1 18  1  0  0  0  0
  2  8  2  0  0  0  0
  2  3  1  0  0  0  0
  3  4  2  0  0  0  0
  3 19  1  0  0  0  0
  4  5  1  0  0  0  0
  4 20  1  0  0  0  0
  5  6  2  0  0  0  0
  5 21  1  0  0  0  0
  6  7  1  0  0  0  0
  6  8  1  0  0  0  0
  7 22  1  0  0  0  0
  7 23  1  0  0  0  0
  7 24  1  0  0  0  0
  8  9  1  0  0  0  0
  9 10  1  0  0  0  0
  9 25  1  0  0  0  0
 10 15  1  0  0  0  0
 10 11  2  0  0  0  0
 11 12  1  0  0  0  0
 12 13  1  0  0  0  0
 12 26  1  0  0  0  0
 12 27  1  0  0  0  0
 13 14  1  0  0  0  0
 13 28  1  0  0  0  0
 13 29  1  0  0  0  0
 14 15  1  0  0  0  0
 14 30  1  0  0  0  0
 14 31  1  0  0  0  0
M  END
$$$$
