ZINC000000027780      none
 OpenBabel11202420153D

 42 44  0  0  0  0  0  0  0  0999 V2000
   29.0198   34.8607   70.4615 O   0  0  0  0  0  0  0  0  0  0  0  0
   29.2744   36.0352   70.2330 C   0  0  0  0  0  0  0  0  0  0  0  0
   29.1090   36.8777   71.1045 O   0  0  0  0  0  1  0  0  0  0  0  0
   29.7800   36.4348   68.9092 C   0  0  0  0  0  0  0  0  0  0  0  0
   30.0673   37.7682   68.6543 C   0  0  0  0  0  0  0  0  0  0  0  0
   30.5481   38.1417   67.3923 C   0  0  0  0  0  0  0  0  0  0  0  0
   30.8500   39.4846   67.0990 C   0  0  0  0  0  0  0  0  0  0  0  0
   31.3160   39.8162   65.8644 C   0  0  0  0  0  0  0  0  0  0  0  0
   31.4998   38.8444   64.8820 C   0  0  0  0  0  0  0  0  0  0  0  0
   31.2192   37.5358   65.1286 C   0  0  0  0  0  0  0  0  0  0  0  0
   31.4601   36.3268   63.8696 S   0  0  0  0  0  0  0  0  0  0  0  0
   30.4065   35.3840   64.0118 O   0  0  0  0  0  0  0  0  0  0  0  0
   32.8345   35.9689   63.9148 O   0  0  0  0  0  0  0  0  0  0  0  0
   31.2206   37.0799   62.4145 N   0  0  0  0  0  0  0  0  0  0  0  0
   29.9337   37.6834   62.1499 C   0  0  0  0  0  0  0  0  0  0  0  0
   28.9942   36.6383   61.4992 C   0  0  0  0  0  0  0  0  0  0  0  0
   29.4221   36.3558   60.1197 C   0  0  0  0  0  0  0  0  0  0  0  0
   30.8116   35.7361   60.0072 C   0  0  0  0  0  0  0  0  0  0  0  0
   31.8490   36.8318   60.0050 C   0  0  0  0  0  0  0  0  0  0  0  0
   32.3299   37.1077   61.4411 C   0  0  0  0  0  0  0  0  0  0  0  0
   30.7307   37.1533   66.3902 C   0  0  0  0  0  0  0  0  0  0  0  0
   30.4369   35.8093   66.6742 C   0  0  0  0  0  0  0  0  0  0  0  0
   29.9695   35.4589   67.9064 C   0  0  0  0  0  0  0  0  0  0  0  0
   29.6831   34.1592   68.1713 O   0  0  0  0  0  0  0  0  0  0  0  0
   29.9208   38.5127   69.4229 H   0  0  0  0  0  0  0  0  0  0  0  0
   30.7129   40.2482   67.8503 H   0  0  0  0  0  0  0  0  0  0  0  0
   31.5470   40.8476   65.6425 H   0  0  0  0  0  0  0  0  0  0  0  0
   31.8709   39.1345   63.9100 H   0  0  0  0  0  0  0  0  0  0  0  0
   29.4966   38.0312   63.0860 H   0  0  0  0  0  0  0  0  0  0  0  0
   30.0612   38.5281   61.4730 H   0  0  0  0  0  0  0  0  0  0  0  0
   29.0211   35.7171   62.0812 H   0  0  0  0  0  0  0  0  0  0  0  0
   27.9755   37.0258   61.4888 H   0  0  0  0  0  0  0  0  0  0  0  0
   29.4127   37.2889   59.5565 H   0  0  0  0  0  0  0  0  0  0  0  0
   28.7014   35.6736   59.6688 H   0  0  0  0  0  0  0  0  0  0  0  0
   30.8821   35.1668   59.0804 H   0  0  0  0  0  0  0  0  0  0  0  0
   30.9842   35.0737   60.8555 H   0  0  0  0  0  0  0  0  0  0  0  0
   31.4140   37.7405   59.5886 H   0  0  0  0  0  0  0  0  0  0  0  0
   32.6969   36.5256   59.3923 H   0  0  0  0  0  0  0  0  0  0  0  0
   32.8044   38.0885   61.4732 H   0  0  0  0  0  0  0  0  0  0  0  0
   33.0635   36.3508   61.7189 H   0  0  0  0  0  0  0  0  0  0  0  0
   30.5777   35.0539   65.9152 H   0  0  0  0  0  0  0  0  0  0  0  0
   29.8426   33.5618   67.4278 H   0  0  0  0  0  0  0  0  0  0  0  0
  1  2  2  0  0  0  0
  2  3  1  0  0  0  0
  2  4  1  0  0  0  0
  4 23  2  0  0  0  0
  4  5  1  0  0  0  0
  5  6  2  0  0  0  0
  5 25  1  0  0  0  0
  6 21  1  0  0  0  0
  6  7  1  0  0  0  0
  7  8  2  0  0  0  0
  7 26  1  0  0  0  0
  8  9  1  0  0  0  0
  8 27  1  0  0  0  0
  9 10  2  0  0  0  0
  9 28  1  0  0  0  0
 10 11  1  0  0  0  0
 10 21  1  0  0  0  0
 11 12  2  0  0  0  0
 11 13  2  0  0  0  0
 11 14  1  0  0  0  0
 14 20  1  0  0  0  0
 14 15  1  0  0  0  0
 15 16  1  0  0  0  0
 15 29  1  0  0  0  0
 15 30  1  0  0  0  0
 16 17  1  0  0  0  0
 16 31  1  0  0  0  0
 16 32  1  0  0  0  0
 17 18  1  0  0  0  0
 17 33  1  0  0  0  0
 17 34  1  0  0  0  0
 18 19  1  0  0  0  0
 18 35  1  0  0  0  0
 18 36  1  0  0  0  0
 19 20  1  0  0  0  0
 19 37  1  0  0  0  0
 19 38  1  0  0  0  0
 20 39  1  0  0  0  0
 20 40  1  0  0  0  0
 21 22  2  0  0  0  0
 22 23  1  0  0  0  0
 22 41  1  0  0  0  0
 23 24  1  0  0  0  0
 24 42  1  0  0  0  0
M  END
$$$$
