ZINC000000006988      none
 OpenBabel11202420153D

 49 52  0  0  0  0  0  0  0  0999 V2000
   29.8788   31.3090   66.8562 C   0  0  0  0  0  0  0  0  0  0  0  0
   29.0908   32.6178   66.9401 C   0  0  0  0  0  0  0  0  0  0  0  0
   29.9910   33.7703   66.5762 C   0  0  0  0  0  0  0  0  0  0  0  0
   30.7357   34.4678   67.4069 N   0  0  0  0  0  0  0  0  0  0  0  0
   31.3922   35.3869   66.7802 N   0  0  0  0  0  0  0  0  0  0  0  0
   32.3185   36.3384   67.3991 C   0  0  0  0  0  0  0  0  0  0  0  0
   31.7960   37.7788   67.2199 C   0  0  0  0  0  0  0  0  0  0  0  0
   31.0387   38.0750   68.5381 C   0  0  0  0  0  0  0  0  0  0  0  0
   31.9230   37.3811   69.6036 C   0  0  0  0  0  0  0  0  0  0  0  0
   32.3992   36.0855   68.9147 C   0  0  0  0  0  0  0  0  0  0  0  0
   31.0871   35.3370   65.4692 C   0  0  0  0  0  0  0  0  0  0  0  0
   30.1849   34.2855   65.3122 C   0  0  0  0  0  0  0  0  0  0  0  0
   29.6289   33.9140   63.9673 C   0  0  0  0  0  0  0  0  0  0  0  0
   29.6165   35.1605   63.0789 C   0  0  0  0  0  0  0  0  0  0  0  0
   30.8642   35.9108   63.1452 N   0  0  0  0  0  0  0  0  0  0  0  0
   31.3913   36.4415   61.9638 C   0  0  0  0  0  0  0  0  0  0  0  0
   31.7328   35.5986   60.9137 C   0  0  0  0  0  0  0  0  0  0  0  0
   32.2481   36.1265   59.7464 C   0  0  0  0  0  0  0  0  0  0  0  0
   32.4351   37.4916   59.6262 C   0  0  0  0  0  0  0  0  0  0  0  0
   32.1011   38.3327   60.6715 C   0  0  0  0  0  0  0  0  0  0  0  0
   31.5797   37.8118   61.8397 C   0  0  0  0  0  0  0  0  0  0  0  0
   31.2155   38.7294   62.9783 C   0  0  0  0  0  0  0  0  0  0  0  0
   31.5336   36.1142   64.3040 C   0  0  0  0  0  0  0  0  0  0  0  0
   32.4556   36.9044   64.3783 O   0  0  0  0  0  0  0  0  0  0  0  0
   30.2504   31.1731   65.8405 H   0  0  0  0  0  0  0  0  0  0  0  0
   30.7195   31.3460   67.5489 H   0  0  0  0  0  0  0  0  0  0  0  0
   29.2277   30.4754   67.1193 H   0  0  0  0  0  0  0  0  0  0  0  0
   28.7191   32.7538   67.9557 H   0  0  0  0  0  0  0  0  0  0  0  0
   28.2501   32.5807   66.2474 H   0  0  0  0  0  0  0  0  0  0  0  0
   33.3076   36.2415   66.9512 H   0  0  0  0  0  0  0  0  0  0  0  0
   32.6269   38.4728   67.0930 H   0  0  0  0  0  0  0  0  0  0  0  0
   31.1173   37.8353   66.3689 H   0  0  0  0  0  0  0  0  0  0  0  0
   30.0416   37.6353   68.5178 H   0  0  0  0  0  0  0  0  0  0  0  0
   30.9851   39.1483   68.7199 H   0  0  0  0  0  0  0  0  0  0  0  0
   31.3368   37.1473   70.4923 H   0  0  0  0  0  0  0  0  0  0  0  0
   32.7745   38.0099   69.8639 H   0  0  0  0  0  0  0  0  0  0  0  0
   31.7486   35.2555   69.1900 H   0  0  0  0  0  0  0  0  0  0  0  0
   33.4272   35.8651   69.2023 H   0  0  0  0  0  0  0  0  0  0  0  0
   30.2553   33.1469   63.5120 H   0  0  0  0  0  0  0  0  0  0  0  0
   28.6135   33.5352   64.0836 H   0  0  0  0  0  0  0  0  0  0  0  0
   29.4438   34.8554   62.0468 H   0  0  0  0  0  0  0  0  0  0  0  0
   28.8000   35.8098   63.3949 H   0  0  0  0  0  0  0  0  0  0  0  0
   31.5916   34.5321   61.0086 H   0  0  0  0  0  0  0  0  0  0  0  0
   32.5098   35.4721   58.9279 H   0  0  0  0  0  0  0  0  0  0  0  0
   32.8426   37.9014   58.7139 H   0  0  0  0  0  0  0  0  0  0  0  0
   32.2483   39.3983   60.5746 H   0  0  0  0  0  0  0  0  0  0  0  0
   32.0771   38.8546   63.6340 H   0  0  0  0  0  0  0  0  0  0  0  0
   30.9169   39.6997   62.5816 H   0  0  0  0  0  0  0  0  0  0  0  0
   30.3890   38.2977   63.5428 H   0  0  0  0  0  0  0  0  0  0  0  0
  1  2  1  0  0  0  0
  1 25  1  0  0  0  0
  1 26  1  0  0  0  0
  1 27  1  0  0  0  0
  2  3  1  0  0  0  0
  2 28  1  0  0  0  0
  2 29  1  0  0  0  0
  3 12  1  0  0  0  0
  3  4  2  0  0  0  0
  4  5  1  0  0  0  0
  5  6  1  0  0  0  0
  5 11  1  0  0  0  0
  6 10  1  0  0  0  0
  6  7  1  0  0  0  0
  6 30  1  0  0  0  0
  7  8  1  0  0  0  0
  7 31  1  0  0  0  0
  7 32  1  0  0  0  0
  8  9  1  0  0  0  0
  8 33  1  0  0  0  0
  8 34  1  0  0  0  0
  9 10  1  0  0  0  0
  9 35  1  0  0  0  0
  9 36  1  0  0  0  0
 10 37  1  0  0  0  0
 10 38  1  0  0  0  0
 11 23  1  0  0  0  0
 11 12  2  0  0  0  0
 12 13  1  0  0  0  0
 13 14  1  0  0  0  0
 13 39  1  0  0  0  0
 13 40  1  0  0  0  0
 14 15  1  0  0  0  0
 14 41  1  0  0  0  0
 14 42  1  0  0  0  0
 15 16  1  0  0  0  0
 15 23  1  0  0  0  0
 16 21  2  0  0  0  0
 16 17  1  0  0  0  0
 17 18  2  0  0  0  0
 17 43  1  0  0  0  0
 18 19  1  0  0  0  0
 18 44  1  0  0  0  0
 19 20  2  0  0  0  0
 19 45  1  0  0  0  0
 20 21  1  0  0  0  0
 20 46  1  0  0  0  0
 21 22  1  0  0  0  0
 22 47  1  0  0  0  0
 22 48  1  0  0  0  0
 22 49  1  0  0  0  0
 23 24  2  0  0  0  0
M  END
$$$$
