ZINC000000024406      none
 OpenBabel11202420153D

 30 29  0  0  1  0  0  0  0  0999 V2000
   31.4364   32.5013   62.5548 C   0  0  0  0  0  0  0  0  0  0  0  0
   30.9338   33.8840   62.9748 C   0  0  0  0  0  0  0  0  0  0  0  0
   31.4055   34.9278   61.9603 C   0  0  0  0  0  0  0  0  0  0  0  0
   30.9029   36.3105   62.3802 C   0  0  1  0  0  0  0  0  0  0  0  0
   31.3342   37.2649   61.4526 F   0  0  0  0  0  0  0  0  0  0  0  0
   29.3968   36.3038   62.4304 C   0  0  0  0  0  0  0  0  0  0  0  0
   28.6845   36.6268   61.3327 N   0  0  0  0  0  0  0  0  0  0  0  0
   28.8256   36.0078   63.4585 O   0  0  0  0  0  0  0  0  0  0  0  0
   31.4577   36.6565   63.7634 C   0  0  2  0  0  0  0  0  0  0  0  0
   31.1217   35.9130   64.4861 H   0  0  0  0  0  0  0  0  0  0  0  0
   30.9552   38.0392   64.1832 C   0  0  0  0  0  0  0  0  0  0  0  0
   32.9869   36.6635   63.7124 C   0  0  0  0  0  0  0  0  0  0  0  0
   33.5417   37.0094   65.0956 C   0  0  0  0  0  0  0  0  0  0  0  0
   31.0412   32.2548   61.5694 H   0  0  0  0  0  0  0  0  0  0  0  0
   32.5259   32.5062   62.5186 H   0  0  0  0  0  0  0  0  0  0  0  0
   31.1004   31.7576   63.2775 H   0  0  0  0  0  0  0  0  0  0  0  0
   31.3290   34.1305   63.9601 H   0  0  0  0  0  0  0  0  0  0  0  0
   29.8445   33.8791   63.0110 H   0  0  0  0  0  0  0  0  0  0  0  0
   31.0103   34.6813   60.9748 H   0  0  0  0  0  0  0  0  0  0  0  0
   32.4950   34.9328   61.9241 H   0  0  0  0  0  0  0  0  0  0  0  0
   29.1390   36.9329   60.5324 H   0  0  0  0  0  0  0  0  0  0  0  0
   27.7174   36.5530   61.3431 H   0  0  0  0  0  0  0  0  0  0  0  0
   31.2528   38.7761   63.4371 H   0  0  0  0  0  0  0  0  0  0  0  0
   29.8683   38.0220   64.2633 H   0  0  0  0  0  0  0  0  0  0  0  0
   31.3865   38.3051   65.1484 H   0  0  0  0  0  0  0  0  0  0  0  0
   33.3450   35.6784   63.4132 H   0  0  0  0  0  0  0  0  0  0  0  0
   33.3230   37.4070   62.9896 H   0  0  0  0  0  0  0  0  0  0  0  0
   33.1837   37.9946   65.3947 H   0  0  0  0  0  0  0  0  0  0  0  0
   33.2057   36.2659   65.8181 H   0  0  0  0  0  0  0  0  0  0  0  0
   34.6312   37.0144   65.0592 H   0  0  0  0  0  0  0  0  0  0  0  0
  1  2  1  0  0  0  0
  1 14  1  0  0  0  0
  1 15  1  0  0  0  0
  1 16  1  0  0  0  0
  2  3  1  0  0  0  0
  2 17  1  0  0  0  0
  2 18  1  0  0  0  0
  3  4  1  0  0  0  0
  3 19  1  0  0  0  0
  3 20  1  0  0  0  0
  4  5  1  6  0  0  0
  4  6  1  0  0  0  0
  4  9  1  0  0  0  0
  6  7  1  0  0  0  0
  6  8  2  0  0  0  0
  7 21  1  0  0  0  0
  7 22  1  0  0  0  0
  9 10  1  1  0  0  0
  9 11  1  0  0  0  0
  9 12  1  0  0  0  0
 11 23  1  0  0  0  0
 11 24  1  0  0  0  0
 11 25  1  0  0  0  0
 12 13  1  0  0  0  0
 12 26  1  0  0  0  0
 12 27  1  0  0  0  0
 13 28  1  0  0  0  0
 13 29  1  0  0  0  0
 13 30  1  0  0  0  0
M  END
$$$$
