ZINC000000020838      none
 OpenBabel11202420153D

 24 26  0  0  0  0  0  0  0  0999 V2000
   31.1728   37.1390   59.7580 O   0  0  0  0  0  0  0  0  0  0  0  0
   31.7813   38.1905   59.7391 C   0  0  0  0  0  0  0  0  0  0  0  0
   31.7021   39.0339   60.7875 N   0  0  0  0  0  0  0  0  0  0  0  0
   30.9197   38.6987   61.8967 C   0  0  0  0  0  0  0  0  0  0  0  0
   30.2038   37.5838   62.0490 N   0  0  0  0  0  0  0  0  0  0  0  0
   29.6078   37.5988   63.1883 N   0  0  0  0  0  0  0  0  0  0  0  0
   29.8901   38.6923   63.8104 N   0  0  0  0  0  0  0  0  0  0  0  0
   29.5691   38.9565   64.6867 H   0  0  0  0  0  0  0  0  0  0  0  0
   30.7504   39.4287   62.9793 N   0  0  0  0  0  0  0  0  0  0  0  0
   32.6113   38.5459   58.5626 C   0  0  0  0  0  0  0  0  0  0  0  0
   32.7976   37.7723   57.3899 C   0  0  0  0  0  0  0  0  0  0  0  0
   33.6413   38.5363   56.6247 C   0  0  0  0  0  0  0  0  0  0  0  0
   34.1657   38.2051   55.2916 C   0  0  0  0  0  0  0  0  0  0  0  0
   33.8945   37.0639   54.5995 C   0  0  0  0  0  0  0  0  0  0  0  0
   34.5026   36.9870   53.3663 C   0  0  0  0  0  0  0  0  0  0  0  0
   35.2701   38.0336   53.0440 C   0  0  0  0  0  0  0  0  0  0  0  0
   35.2480   39.2172   54.3439 S   0  0  0  0  0  0  0  0  0  0  0  0
   33.8937   39.6492   57.3378 O   0  0  0  0  0  0  0  0  0  0  0  0
   33.3193   39.6385   58.4012 N   0  0  0  0  0  0  0  0  0  0  0  0
   32.1879   39.8732   60.7724 H   0  0  0  0  0  0  0  0  0  0  0  0
   32.3746   36.8069   57.1542 H   0  0  0  0  0  0  0  0  0  0  0  0
   33.2530   36.2849   54.9847 H   0  0  0  0  0  0  0  0  0  0  0  0
   34.3730   36.1400   52.7089 H   0  0  0  0  0  0  0  0  0  0  0  0
   35.8220   38.1365   52.1214 H   0  0  0  0  0  0  0  0  0  0  0  0
  1  2  2  0  0  0  0
  2  3  1  0  0  0  0
  2 10  1  0  0  0  0
  3  4  1  0  0  0  0
  3 20  1  0  0  0  0
  4  9  2  0  0  0  0
  4  5  1  0  0  0  0
  5  6  2  0  0  0  0
  6  7  1  0  0  0  0
  7  8  1  0  0  0  0
  7  9  1  0  0  0  0
 10 19  2  0  0  0  0
 10 11  1  0  0  0  0
 11 12  2  0  0  0  0
 11 21  1  0  0  0  0
 12 13  1  0  0  0  0
 12 18  1  0  0  0  0
 13 17  1  0  0  0  0
 13 14  2  0  0  0  0
 14 15  1  0  0  0  0
 14 22  1  0  0  0  0
 15 16  2  0  0  0  0
 15 23  1  0  0  0  0
 16 17  1  0  0  0  0
 16 24  1  0  0  0  0
 18 19  1  0  0  0  0
M  END
$$$$
