ZINC000000005218      none
 OpenBabel11202420153D

 39 41  0  0  0  0  0  0  0  0999 V2000
   27.9325   34.5106   65.0413 C   0  0  0  0  0  0  0  0  0  0  0  0
   29.2499   33.7516   64.8710 C   0  0  0  0  0  0  0  0  0  0  0  0
   30.3987   34.7265   64.9002 C   0  0  0  0  0  0  0  0  0  0  0  0
   30.8568   35.3067   63.7090 C   0  0  0  0  0  0  0  0  0  0  0  0
   31.8946   36.1908   63.7540 C   0  0  0  0  0  0  0  0  0  0  0  0
   32.4028   36.8334   62.4891 C   0  0  0  0  0  0  0  0  0  0  0  0
   31.5878   36.3275   61.2971 C   0  0  0  0  0  0  0  0  0  0  0  0
   32.0959   36.9701   60.0322 C   0  0  0  0  0  0  0  0  0  0  0  0
   32.3127   36.3421   58.9158 N   0  0  0  0  0  0  0  0  0  0  0  0
   32.7646   37.2332   57.9922 C   0  0  0  0  0  0  0  0  0  0  0  0
   33.1489   37.1269   56.6545 C   0  0  0  0  0  0  0  0  0  0  0  0
   33.5709   38.2472   55.9743 C   0  0  0  0  0  0  0  0  0  0  0  0
   33.6164   39.4793   56.6100 C   0  0  0  0  0  0  0  0  0  0  0  0
   33.2397   39.5990   57.9313 C   0  0  0  0  0  0  0  0  0  0  0  0
   32.8121   38.4812   58.6315 C   0  0  0  0  0  0  0  0  0  0  0  0
   32.3837   38.2741   59.8962 O   0  0  0  0  0  0  0  0  0  0  0  0
   32.4885   36.4920   64.9915 C   0  0  0  0  0  0  0  0  0  0  0  0
   33.4209   37.2778   65.0455 O   0  0  0  0  0  0  0  0  0  0  0  0
   32.0291   35.9144   66.1178 N   0  0  0  0  0  0  0  0  0  0  0  0
   32.4432   36.1266   66.9690 H   0  0  0  0  0  0  0  0  0  0  0  0
   30.9925   35.0385   66.0758 C   0  0  0  0  0  0  0  0  0  0  0  0
   30.4984   34.4065   67.3514 C   0  0  0  0  0  0  0  0  0  0  0  0
   27.8197   35.2294   64.2297 H   0  0  0  0  0  0  0  0  0  0  0  0
   27.9375   35.0377   65.9954 H   0  0  0  0  0  0  0  0  0  0  0  0
   27.1015   33.8054   65.0202 H   0  0  0  0  0  0  0  0  0  0  0  0
   29.3627   33.0328   65.6827 H   0  0  0  0  0  0  0  0  0  0  0  0
   29.2450   33.2244   63.9170 H   0  0  0  0  0  0  0  0  0  0  0  0
   30.3906   35.0595   62.7668 H   0  0  0  0  0  0  0  0  0  0  0  0
   32.3013   37.9160   62.5654 H   0  0  0  0  0  0  0  0  0  0  0  0
   33.4522   36.5759   62.3471 H   0  0  0  0  0  0  0  0  0  0  0  0
   31.6891   35.2449   61.2207 H   0  0  0  0  0  0  0  0  0  0  0  0
   30.5381   36.5851   61.4390 H   0  0  0  0  0  0  0  0  0  0  0  0
   33.1157   36.1699   56.1551 H   0  0  0  0  0  0  0  0  0  0  0  0
   33.8688   38.1661   54.9394 H   0  0  0  0  0  0  0  0  0  0  0  0
   33.9489   40.3512   56.0663 H   0  0  0  0  0  0  0  0  0  0  0  0
   33.2775   40.5617   58.4195 H   0  0  0  0  0  0  0  0  0  0  0  0
   31.0405   33.4781   67.5308 H   0  0  0  0  0  0  0  0  0  0  0  0
   30.6639   35.0906   68.1837 H   0  0  0  0  0  0  0  0  0  0  0  0
   29.4330   34.1937   67.2625 H   0  0  0  0  0  0  0  0  0  0  0  0
  1  2  1  0  0  0  0
  1 23  1  0  0  0  0
  1 24  1  0  0  0  0
  1 25  1  0  0  0  0
  2  3  1  0  0  0  0
  2 26  1  0  0  0  0
  2 27  1  0  0  0  0
  3 21  2  0  0  0  0
  3  4  1  0  0  0  0
  4  5  2  0  0  0  0
  4 28  1  0  0  0  0
  5  6  1  0  0  0  0
  5 17  1  0  0  0  0
  6  7  1  0  0  0  0
  6 29  1  0  0  0  0
  6 30  1  0  0  0  0
  7  8  1  0  0  0  0
  7 31  1  0  0  0  0
  7 32  1  0  0  0  0
  8 16  1  0  0  0  0
  8  9  2  0  0  0  0
  9 10  1  0  0  0  0
 10 15  2  0  0  0  0
 10 11  1  0  0  0  0
 11 12  2  0  0  0  0
 11 33  1  0  0  0  0
 12 13  1  0  0  0  0
 12 34  1  0  0  0  0
 13 14  2  0  0  0  0
 13 35  1  0  0  0  0
 14 15  1  0  0  0  0
 14 36  1  0  0  0  0
 15 16  1  0  0  0  0
 17 18  2  0  0  0  0
 17 19  1  0  0  0  0
 19 20  1  0  0  0  0
 19 21  1  0  0  0  0
 21 22  1  0  0  0  0
 22 37  1  0  0  0  0
 22 38  1  0  0  0  0
 22 39  1  0  0  0  0
M  END
$$$$
