ZINC000000039058      none
 OpenBabel11202420153D

 35 37  0  0  0  0  0  0  0  0999 V2000
   33.9142   39.5722   56.0056 C   0  0  0  0  0  0  0  0  0  0  0  0
   33.4323   38.4756   56.9201 C   0  0  0  0  0  0  0  0  0  0  0  0
   32.9900   38.7592   58.1237 N   0  0  0  0  0  0  0  0  0  0  0  0
   32.5672   37.8750   58.9482 N   0  0  0  0  0  0  0  0  0  0  0  0
   32.5328   36.5830   58.6707 C   0  0  0  0  0  0  0  0  0  0  0  0
   32.0638   35.6728   59.6040 N   0  0  0  0  0  0  0  0  0  0  0  0
   31.6204   36.1184   60.8546 C   0  0  0  0  0  0  0  0  0  0  0  0
   32.2353   35.6614   62.0129 C   0  0  0  0  0  0  0  0  0  0  0  0
   31.8005   36.1056   63.2461 C   0  0  0  0  0  0  0  0  0  0  0  0
   30.7430   36.9995   63.3286 C   0  0  0  0  0  0  0  0  0  0  0  0
   30.3117   37.4317   64.5436 O   0  0  0  0  0  0  0  0  0  0  0  0
   30.9246   38.6116   65.0676 C   0  0  0  0  0  0  0  0  0  0  0  0
   31.3210   39.4392   64.0117 F   0  0  0  0  0  0  0  0  0  0  0  0
   30.0085   39.2932   65.8759 F   0  0  0  0  0  0  0  0  0  0  0  0
   32.3674   38.1548   66.0474 Cl  0  0  0  0  0  0  0  0  0  0  0  0
   30.1249   37.4523   62.1722 C   0  0  0  0  0  0  0  0  0  0  0  0
   30.5616   37.0133   60.9379 C   0  0  0  0  0  0  0  0  0  0  0  0
   32.9834   36.1476   57.4035 C   0  0  0  0  0  0  0  0  0  0  0  0
   32.9839   34.8022   57.0215 C   0  0  0  0  0  0  0  0  0  0  0  0
   33.4338   34.4588   55.7806 C   0  0  0  0  0  0  0  0  0  0  0  0
   33.8917   35.4260   54.8890 C   0  0  0  0  0  0  0  0  0  0  0  0
   33.9048   36.7461   55.2291 C   0  0  0  0  0  0  0  0  0  0  0  0
   33.4556   37.1334   56.4981 C   0  0  0  0  0  0  0  0  0  0  0  0
   34.9816   39.7308   56.1595 H   0  0  0  0  0  0  0  0  0  0  0  0
   33.7352   39.2858   54.9692 H   0  0  0  0  0  0  0  0  0  0  0  0
   33.3744   40.4929   56.2266 H   0  0  0  0  0  0  0  0  0  0  0  0
   32.0426   34.7267   59.3906 H   0  0  0  0  0  0  0  0  0  0  0  0
   33.0555   34.9617   61.9492 H   0  0  0  0  0  0  0  0  0  0  0  0
   32.2812   35.7534   64.1469 H   0  0  0  0  0  0  0  0  0  0  0  0
   29.3016   38.1483   62.2373 H   0  0  0  0  0  0  0  0  0  0  0  0
   30.0798   37.3654   60.0379 H   0  0  0  0  0  0  0  0  0  0  0  0
   32.6309   34.0422   57.7027 H   0  0  0  0  0  0  0  0  0  0  0  0
   33.4348   33.4201   55.4844 H   0  0  0  0  0  0  0  0  0  0  0  0
   34.2416   35.1254   53.9124 H   0  0  0  0  0  0  0  0  0  0  0  0
   34.2624   37.4859   54.5283 H   0  0  0  0  0  0  0  0  0  0  0  0
  1  2  1  0  0  0  0
  1 24  1  0  0  0  0
  1 25  1  0  0  0  0
  1 26  1  0  0  0  0
  2 23  2  0  0  0  0
  2  3  1  0  0  0  0
  3  4  2  0  0  0  0
  4  5  1  0  0  0  0
  5  6  1  0  0  0  0
  5 18  2  0  0  0  0
  6  7  1  0  0  0  0
  6 27  1  0  0  0  0
  7 17  2  0  0  0  0
  7  8  1  0  0  0  0
  8  9  2  0  0  0  0
  8 28  1  0  0  0  0
  9 10  1  0  0  0  0
  9 29  1  0  0  0  0
 10 11  1  0  0  0  0
 10 16  2  0  0  0  0
 11 12  1  0  0  0  0
 12 13  1  0  0  0  0
 12 14  1  0  0  0  0
 12 15  1  0  0  0  0
 16 17  1  0  0  0  0
 16 30  1  0  0  0  0
 17 31  1  0  0  0  0
 18 23  1  0  0  0  0
 18 19  1  0  0  0  0
 19 20  2  0  0  0  0
 19 32  1  0  0  0  0
 20 21  1  0  0  0  0
 20 33  1  0  0  0  0
 21 22  2  0  0  0  0
 21 34  1  0  0  0  0
 22 23  1  0  0  0  0
 22 35  1  0  0  0  0
M  END
$$$$
