ZINC000000007270      none
 OpenBabel11202420153D

 36 38  0  0  0  0  0  0  0  0999 V2000
   31.7542   38.5771   57.6500 C   0  0  0  0  0  0  0  0  0  0  0  0
   32.5563   37.5947   58.4642 C   0  0  0  0  0  0  0  0  0  0  0  0
   33.0950   37.9543   59.4904 O   0  0  0  0  0  0  0  0  0  0  0  0
   32.6855   36.2070   58.0171 C   0  0  0  0  0  0  0  0  0  0  0  0
   32.2806   35.0661   58.7143 C   0  0  0  0  0  0  0  0  0  0  0  0
   31.6406   35.0409   60.0439 C   0  0  0  0  0  0  0  0  0  0  0  0
   32.2394   34.3715   61.1192 C   0  0  0  0  0  0  0  0  0  0  0  0
   31.6058   34.3742   62.3444 C   0  0  0  0  0  0  0  0  0  0  0  0
   30.4535   34.9948   62.5103 N   0  0  0  0  0  0  0  0  0  0  0  0
   29.8550   35.6369   61.5255 C   0  0  0  0  0  0  0  0  0  0  0  0
   30.4169   35.6860   60.2666 C   0  0  0  0  0  0  0  0  0  0  0  0
   32.5763   33.9830   57.9459 N   0  0  0  0  0  0  0  0  0  0  0  0
   32.3994   33.0593   58.1839 H   0  0  0  0  0  0  0  0  0  0  0  0
   33.1647   34.4058   56.7796 C   0  0  0  0  0  0  0  0  0  0  0  0
   33.6306   33.5292   55.6849 C   0  0  0  0  0  0  0  0  0  0  0  0
   33.0982   33.6438   54.3949 C   0  0  0  0  0  0  0  0  0  0  0  0
   33.5661   32.8090   53.4021 C   0  0  0  0  0  0  0  0  0  0  0  0
   34.4934   31.9054   53.6577 N   0  0  0  0  0  0  0  0  0  0  0  0
   35.0177   31.7603   54.8600 C   0  0  0  0  0  0  0  0  0  0  0  0
   34.6125   32.5566   55.9101 C   0  0  0  0  0  0  0  0  0  0  0  0
   33.2485   35.7622   56.7960 C   0  0  0  0  0  0  0  0  0  0  0  0
   33.8276   36.6333   55.7112 C   0  0  0  0  0  0  0  0  0  0  0  0
   30.7382   38.6291   58.0412 H   0  0  0  0  0  0  0  0  0  0  0  0
   32.2173   39.5620   57.7097 H   0  0  0  0  0  0  0  0  0  0  0  0
   31.7271   38.2506   56.6104 H   0  0  0  0  0  0  0  0  0  0  0  0
   33.1828   33.8616   60.9908 H   0  0  0  0  0  0  0  0  0  0  0  0
   32.0616   33.8650   63.1808 H   0  0  0  0  0  0  0  0  0  0  0  0
   28.9122   36.1313   61.7074 H   0  0  0  0  0  0  0  0  0  0  0  0
   29.9214   36.2138   59.4651 H   0  0  0  0  0  0  0  0  0  0  0  0
   32.3356   34.3777   54.1798 H   0  0  0  0  0  0  0  0  0  0  0  0
   33.1649   32.8927   52.4030 H   0  0  0  0  0  0  0  0  0  0  0  0
   35.7747   31.0075   55.0237 H   0  0  0  0  0  0  0  0  0  0  0  0
   35.0463   32.4324   56.8915 H   0  0  0  0  0  0  0  0  0  0  0  0
   33.0424   36.9054   55.0058 H   0  0  0  0  0  0  0  0  0  0  0  0
   34.2462   37.5364   56.1551 H   0  0  0  0  0  0  0  0  0  0  0  0
   34.6130   36.0880   55.1878 H   0  0  0  0  0  0  0  0  0  0  0  0
  1  2  1  0  0  0  0
  1 23  1  0  0  0  0
  1 24  1  0  0  0  0
  1 25  1  0  0  0  0
  2  3  2  0  0  0  0
  2  4  1  0  0  0  0
  4 21  1  0  0  0  0
  4  5  2  0  0  0  0
  5  6  1  0  0  0  0
  5 12  1  0  0  0  0
  6 11  2  0  0  0  0
  6  7  1  0  0  0  0
  7  8  2  0  0  0  0
  7 26  1  0  0  0  0
  8  9  1  0  0  0  0
  8 27  1  0  0  0  0
  9 10  2  0  0  0  0
 10 11  1  0  0  0  0
 10 28  1  0  0  0  0
 11 29  1  0  0  0  0
 12 13  1  0  0  0  0
 12 14  1  0  0  0  0
 14 15  1  0  0  0  0
 14 21  2  0  0  0  0
 15 20  2  0  0  0  0
 15 16  1  0  0  0  0
 16 17  2  0  0  0  0
 16 30  1  0  0  0  0
 17 18  1  0  0  0  0
 17 31  1  0  0  0  0
 18 19  2  0  0  0  0
 19 20  1  0  0  0  0
 19 32  1  0  0  0  0
 20 33  1  0  0  0  0
 21 22  1  0  0  0  0
 22 34  1  0  0  0  0
 22 35  1  0  0  0  0
 22 36  1  0  0  0  0
M  END
$$$$
