ZINC000000048939      none
 OpenBabel11202420153D

 45 47  0  0  0  0  0  0  0  0999 V2000
   31.1331   40.0956   68.2638 C   0  0  0  0  0  0  0  0  0  0  0  0
   30.4606   39.4335   67.0595 C   0  0  0  0  0  0  0  0  0  0  0  0
   29.2102   40.2266   66.6741 C   0  0  0  0  0  0  0  0  0  0  0  0
   30.0633   37.9966   67.4217 C   0  0  0  0  0  0  0  0  0  0  0  0
   29.3167   37.4187   66.2361 C   0  0  0  0  0  0  0  0  0  0  0  0
   28.3137   36.7537   66.3876 O   0  0  0  0  0  0  0  0  0  0  0  0
   29.8540   37.6939   64.8954 C   0  0  0  0  0  0  0  0  0  0  0  0
   29.3641   37.0102   63.7755 C   0  0  0  0  0  0  0  0  0  0  0  0
   29.8705   37.2959   62.5893 N   0  0  0  0  0  0  0  0  0  0  0  0
   30.8224   38.2103   62.4608 C   0  0  0  0  0  0  0  0  0  0  0  0
   31.3231   38.4803   61.1984 N   0  0  0  0  0  0  0  0  0  0  0  0
   30.8429   37.8183   60.1273 C   0  0  0  0  0  0  0  0  0  0  0  0
   29.9723   36.9861   60.2689 O   0  0  0  0  0  0  0  0  0  0  0  0
   31.3880   38.1122   58.7533 C   0  0  0  0  0  0  0  0  0  0  0  0
   32.8894   37.8188   58.7268 C   0  0  0  0  0  0  0  0  0  0  0  0
   33.4344   38.1127   57.3529 C   0  0  0  0  0  0  0  0  0  0  0  0
   33.4634   37.1180   56.3934 C   0  0  0  0  0  0  0  0  0  0  0  0
   33.9589   37.3889   55.1317 C   0  0  0  0  0  0  0  0  0  0  0  0
   34.4352   38.6517   54.8327 C   0  0  0  0  0  0  0  0  0  0  0  0
   34.4110   39.6450   55.7938 C   0  0  0  0  0  0  0  0  0  0  0  0
   33.9106   39.3755   57.0539 C   0  0  0  0  0  0  0  0  0  0  0  0
   31.3110   38.8752   63.4982 N   0  0  0  0  0  0  0  0  0  0  0  0
   30.8608   38.6493   64.7207 C   0  0  0  0  0  0  0  0  0  0  0  0
   31.4325   39.4122   65.8822 C   0  0  0  0  0  0  0  0  0  0  0  0
   31.4150   41.1166   68.0068 H   0  0  0  0  0  0  0  0  0  0  0  0
   30.4393   40.1109   69.1044 H   0  0  0  0  0  0  0  0  0  0  0  0
   32.0241   39.5309   68.5383 H   0  0  0  0  0  0  0  0  0  0  0  0
   28.7311   39.7552   65.8161 H   0  0  0  0  0  0  0  0  0  0  0  0
   28.5162   40.2419   67.5146 H   0  0  0  0  0  0  0  0  0  0  0  0
   29.4924   41.2476   66.4173 H   0  0  0  0  0  0  0  0  0  0  0  0
   29.4174   38.0011   68.2997 H   0  0  0  0  0  0  0  0  0  0  0  0
   30.9566   37.4046   67.6212 H   0  0  0  0  0  0  0  0  0  0  0  0
   28.5893   36.2651   63.8794 H   0  0  0  0  0  0  0  0  0  0  0  0
   32.0195   39.1459   61.0852 H   0  0  0  0  0  0  0  0  0  0  0  0
   30.8821   37.4844   58.0198 H   0  0  0  0  0  0  0  0  0  0  0  0
   31.2185   39.1615   58.5121 H   0  0  0  0  0  0  0  0  0  0  0  0
   33.3952   38.4465   59.4604 H   0  0  0  0  0  0  0  0  0  0  0  0
   33.0589   36.7694   58.9681 H   0  0  0  0  0  0  0  0  0  0  0  0
   33.0954   36.1301   56.6284 H   0  0  0  0  0  0  0  0  0  0  0  0
   33.9780   36.6128   54.3809 H   0  0  0  0  0  0  0  0  0  0  0  0
   34.8264   38.8623   53.8483 H   0  0  0  0  0  0  0  0  0  0  0  0
   34.7834   40.6315   55.5602 H   0  0  0  0  0  0  0  0  0  0  0  0
   33.8921   40.1514   57.8048 H   0  0  0  0  0  0  0  0  0  0  0  0
   32.3637   38.9405   66.1959 H   0  0  0  0  0  0  0  0  0  0  0  0
   31.6390   40.4361   65.5704 H   0  0  0  0  0  0  0  0  0  0  0  0
  1  2  1  0  0  0  0
  1 25  1  0  0  0  0
  1 26  1  0  0  0  0
  1 27  1  0  0  0  0
  2 24  1  0  0  0  0
  2  3  1  0  0  0  0
  2  4  1  0  0  0  0
  3 28  1  0  0  0  0
  3 29  1  0  0  0  0
  3 30  1  0  0  0  0
  4  5  1  0  0  0  0
  4 31  1  0  0  0  0
  4 32  1  0  0  0  0
  5  6  2  0  0  0  0
  5  7  1  0  0  0  0
  7 23  2  0  0  0  0
  7  8  1  0  0  0  0
  8  9  2  0  0  0  0
  8 33  1  0  0  0  0
  9 10  1  0  0  0  0
 10 11  1  0  0  0  0
 10 22  2  0  0  0  0
 11 12  1  0  0  0  0
 11 34  1  0  0  0  0
 12 13  2  0  0  0  0
 12 14  1  0  0  0  0
 14 15  1  0  0  0  0
 14 35  1  0  0  0  0
 14 36  1  0  0  0  0
 15 16  1  0  0  0  0
 15 37  1  0  0  0  0
 15 38  1  0  0  0  0
 16 21  2  0  0  0  0
 16 17  1  0  0  0  0
 17 18  2  0  0  0  0
 17 39  1  0  0  0  0
 18 19  1  0  0  0  0
 18 40  1  0  0  0  0
 19 20  2  0  0  0  0
 19 41  1  0  0  0  0
 20 21  1  0  0  0  0
 20 42  1  0  0  0  0
 21 43  1  0  0  0  0
 22 23  1  0  0  0  0
 23 24  1  0  0  0  0
 24 44  1  0  0  0  0
 24 45  1  0  0  0  0
M  END
$$$$
