ZINC000000007677      none
 OpenBabel11202420153D

 36 39  0  0  1  0  0  0  0  0999 V2000
   31.0231   38.5715   62.3917 C   0  0  0  0  0  0  0  0  0  0  0  0
   30.3846   38.8698   63.5206 C   0  0  0  0  0  0  0  0  0  0  0  0
   29.0108   39.4081   63.6728 C   0  0  0  0  0  0  0  0  0  0  0  0
   28.2429   39.6339   62.7582 O   0  0  0  0  0  0  0  0  0  0  0  0
   28.7398   39.6105   64.9907 O   0  0  0  0  0  0  0  0  0  0  0  0
   29.5998   38.6961   65.7339 C   0  0  1  0  0  0  0  0  0  0  0  0
   29.1744   37.6936   65.6874 H   0  0  0  0  0  0  0  0  0  0  0  0
   30.8973   38.7362   64.9406 C   0  0  1  0  0  0  0  0  0  0  0  0
   31.4408   39.6463   65.1945 H   0  0  0  0  0  0  0  0  0  0  0  0
   31.7939   37.5514   65.1582 C   0  0  0  0  0  0  0  0  0  0  0  0
   32.3833   37.5723   66.5700 C   0  0  0  0  0  0  0  0  0  0  0  0
   31.3595   36.9655   67.5581 C   0  0  1  0  0  0  0  0  0  0  0  0
   31.1974   35.4441   67.5482 C   0  0  0  0  0  0  0  0  0  0  0  0
   31.2895   37.6791   68.8111 O   0  0  0  0  0  0  0  0  0  0  0  0
   30.1778   37.8325   67.9707 C   0  0  2  0  0  0  0  0  0  0  0  0
   28.7951   37.2401   68.2966 C   0  0  0  0  0  0  0  0  0  0  0  0
   27.9038   38.4654   68.3912 C   0  0  0  0  0  0  0  0  0  0  0  0
   28.4512   39.4841   67.7777 C   0  0  0  0  0  0  0  0  0  0  0  0
   27.8309   40.8535   67.6727 C   0  0  0  0  0  0  0  0  0  0  0  0
   29.7961   39.0986   67.1849 C   0  0  2  0  0  0  0  0  0  0  0  0
   30.5409   39.8873   67.2915 H   0  0  0  0  0  0  0  0  0  0  0  0
   32.0304   38.1836   62.4273 H   0  0  0  0  0  0  0  0  0  0  0  0
   30.5340   38.7174   61.4400 H   0  0  0  0  0  0  0  0  0  0  0  0
   32.6047   37.5761   64.4302 H   0  0  0  0  0  0  0  0  0  0  0  0
   31.2178   36.6360   65.0230 H   0  0  0  0  0  0  0  0  0  0  0  0
   32.6020   38.6006   66.8582 H   0  0  0  0  0  0  0  0  0  0  0  0
   33.3015   36.9852   66.5908 H   0  0  0  0  0  0  0  0  0  0  0  0
   30.4019   35.1678   66.8562 H   0  0  0  0  0  0  0  0  0  0  0  0
   32.1319   34.9812   67.2309 H   0  0  0  0  0  0  0  0  0  0  0  0
   30.9433   35.0993   68.5505 H   0  0  0  0  0  0  0  0  0  0  0  0
   28.8193   36.7079   69.2476 H   0  0  0  0  0  0  0  0  0  0  0  0
   28.4602   36.5820   67.4949 H   0  0  0  0  0  0  0  0  0  0  0  0
   26.9473   38.4917   68.8919 H   0  0  0  0  0  0  0  0  0  0  0  0
   26.8679   40.8563   68.1833 H   0  0  0  0  0  0  0  0  0  0  0  0
   28.4901   41.5874   68.1362 H   0  0  0  0  0  0  0  0  0  0  0  0
   27.6860   41.1071   66.6226 H   0  0  0  0  0  0  0  0  0  0  0  0
  1  2  2  0  0  0  0
  1 22  1  0  0  0  0
  1 23  1  0  0  0  0
  2  8  1  0  0  0  0
  2  3  1  0  0  0  0
  3  4  2  0  0  0  0
  3  5  1  0  0  0  0
  5  6  1  0  0  0  0
  6  7  1  6  0  0  0
  6 20  1  0  0  0  0
  6  8  1  0  0  0  0
  8  9  1  1  0  0  0
  8 10  1  0  0  0  0
 10 11  1  0  0  0  0
 10 24  1  0  0  0  0
 10 25  1  0  0  0  0
 11 12  1  0  0  0  0
 11 26  1  0  0  0  0
 11 27  1  0  0  0  0
 12 15  1  0  0  0  0
 12 13  1  1  0  0  0
 12 14  1  0  0  0  0
 13 28  1  0  0  0  0
 13 29  1  0  0  0  0
 13 30  1  0  0  0  0
 15 14  1  1  0  0  0
 15 20  1  0  0  0  0
 15 16  1  0  0  0  0
 16 17  1  0  0  0  0
 16 31  1  0  0  0  0
 16 32  1  0  0  0  0
 17 18  2  0  0  0  0
 17 33  1  0  0  0  0
 18 19  1  0  0  0  0
 18 20  1  0  0  0  0
 19 34  1  0  0  0  0
 19 35  1  0  0  0  0
 19 36  1  0  0  0  0
 20 21  1  1  0  0  0
M  END
$$$$
