ZINC000000013399      none
 OpenBabel11202420153D

 25 25  0  0  1  0  0  0  0  0999 V2000
   31.5936   33.8471   60.6202 C   0  0  0  0  0  0  0  0  0  0  0  0
   30.7860   35.1287   60.8350 C   0  0  2  0  0  0  0  0  0  0  0  0
   29.7696   34.9832   60.4691 H   0  0  0  0  0  0  0  0  0  0  0  0
   31.4335   36.2625   60.0826 C   0  0  0  0  0  0  0  0  0  0  0  0
   31.3203   37.5575   60.5528 C   0  0  0  0  0  0  0  0  0  0  0  0
   31.9188   38.5972   59.8661 C   0  0  0  0  0  0  0  0  0  0  0  0
   32.6217   38.3429   58.7019 C   0  0  0  0  0  0  0  0  0  0  0  0
   33.3672   39.6491   57.8349 Cl  0  0  0  0  0  0  0  0  0  0  0  0
   32.7300   37.0473   58.2288 C   0  0  0  0  0  0  0  0  0  0  0  0
   32.1358   36.0078   58.9194 C   0  0  0  0  0  0  0  0  0  0  0  0
   30.7495   35.4489   62.2641 N   0  0  0  0  0  0  0  0  0  0  0  0
   29.5080   35.5250   62.9411 O   0  0  0  0  0  0  0  0  0  0  0  0
   31.8973   35.6711   62.9347 C   0  0  0  0  0  0  0  0  0  0  0  0
   31.8641   35.9602   64.2506 N   0  0  0  0  0  0  0  0  0  0  0  0
   32.9633   35.6056   62.3534 O   0  0  0  0  0  0  0  0  0  0  0  0
   31.1253   33.0270   61.1644 H   0  0  0  0  0  0  0  0  0  0  0  0
   31.6209   33.6088   59.5568 H   0  0  0  0  0  0  0  0  0  0  0  0
   32.6100   33.9924   60.9861 H   0  0  0  0  0  0  0  0  0  0  0  0
   30.7678   37.7564   61.4592 H   0  0  0  0  0  0  0  0  0  0  0  0
   31.8340   39.6083   60.2360 H   0  0  0  0  0  0  0  0  0  0  0  0
   33.2782   36.8482   57.3199 H   0  0  0  0  0  0  0  0  0  0  0  0
   32.2205   34.9964   58.5504 H   0  0  0  0  0  0  0  0  0  0  0  0
   28.7415   35.3506   62.3778 H   0  0  0  0  0  0  0  0  0  0  0  0
   32.6904   36.1161   64.7340 H   0  0  0  0  0  0  0  0  0  0  0  0
   31.0136   36.0124   64.7142 H   0  0  0  0  0  0  0  0  0  0  0  0
  1  2  1  0  0  0  0
  1 16  1  0  0  0  0
  1 17  1  0  0  0  0
  1 18  1  0  0  0  0
  2  3  1  6  0  0  0
  2  4  1  0  0  0  0
  2 11  1  0  0  0  0
  4 10  2  0  0  0  0
  4  5  1  0  0  0  0
  5  6  2  0  0  0  0
  5 19  1  0  0  0  0
  6  7  1  0  0  0  0
  6 20  1  0  0  0  0
  7  8  1  0  0  0  0
  7  9  2  0  0  0  0
  9 10  1  0  0  0  0
  9 21  1  0  0  0  0
 10 22  1  0  0  0  0
 11 12  1  0  0  0  0
 11 13  1  0  0  0  0
 12 23  1  0  0  0  0
 13 14  1  0  0  0  0
 13 15  2  0  0  0  0
 14 24  1  0  0  0  0
 14 25  1  0  0  0  0
M  END
$$$$
