ZINC000000039724      none
 OpenBabel11202420153D

 26 27  0  0  0  0  0  0  0  0999 V2000
   34.2418   33.5766   56.1086 C   0  0  0  0  0  0  0  0  0  0  0  0
   32.9640   34.2823   56.2330 N   0  0  0  0  0  0  0  0  0  0  0  0
   31.8699   33.9854   55.3051 C   0  0  0  0  0  0  0  0  0  0  0  0
   32.7904   35.2294   57.2271 C   0  0  0  0  0  0  0  0  0  0  0  0
   33.0505   36.5067   57.1092 N   0  0  0  0  0  0  0  0  0  0  0  0
   32.7566   37.1284   58.2815 C   0  0  0  0  0  0  0  0  0  0  0  0
   32.8335   38.5121   58.7481 C   0  0  0  0  0  0  0  0  0  0  0  0
   33.2293   39.3965   58.0104 O   0  0  0  0  0  0  0  0  0  0  0  0
   32.4566   38.7876   60.0153 N   0  0  0  0  0  0  0  0  0  0  0  0
   32.5016   39.7005   60.3400 H   0  0  0  0  0  0  0  0  0  0  0  0
   32.0198   37.8146   60.8322 C   0  0  0  0  0  0  0  0  0  0  0  0
   31.6902   38.1039   61.9665 O   0  0  0  0  0  0  0  0  0  0  0  0
   31.9351   36.5315   60.4387 N   0  0  0  0  0  0  0  0  0  0  0  0
   31.4504   35.5168   61.3778 C   0  0  0  0  0  0  0  0  0  0  0  0
   32.2988   36.1600   59.1639 C   0  0  0  0  0  0  0  0  0  0  0  0
   32.3257   34.9757   58.4888 N   0  0  0  0  0  0  0  0  0  0  0  0
   32.0625   34.1104   58.8393 H   0  0  0  0  0  0  0  0  0  0  0  0
   34.2171   32.6708   56.7145 H   0  0  0  0  0  0  0  0  0  0  0  0
   35.0488   34.2228   56.4540 H   0  0  0  0  0  0  0  0  0  0  0  0
   34.4102   33.3111   55.0650 H   0  0  0  0  0  0  0  0  0  0  0  0
   32.1904   33.2199   54.5986 H   0  0  0  0  0  0  0  0  0  0  0  0
   31.0066   33.6247   55.8647 H   0  0  0  0  0  0  0  0  0  0  0  0
   31.5984   34.8905   54.7619 H   0  0  0  0  0  0  0  0  0  0  0  0
   32.2927   35.1034   61.9325 H   0  0  0  0  0  0  0  0  0  0  0  0
   30.7459   35.9727   62.0735 H   0  0  0  0  0  0  0  0  0  0  0  0
   30.9521   34.7197   60.8262 H   0  0  0  0  0  0  0  0  0  0  0  0
  1  2  1  0  0  0  0
  1 18  1  0  0  0  0
  1 19  1  0  0  0  0
  1 20  1  0  0  0  0
  2  3  1  0  0  0  0
  2  4  1  0  0  0  0
  3 21  1  0  0  0  0
  3 22  1  0  0  0  0
  3 23  1  0  0  0  0
  4 16  1  0  0  0  0
  4  5  2  0  0  0  0
  5  6  1  0  0  0  0
  6 15  2  0  0  0  0
  6  7  1  0  0  0  0
  7  8  2  0  0  0  0
  7  9  1  0  0  0  0
  9 10  1  0  0  0  0
  9 11  1  0  0  0  0
 11 12  2  0  0  0  0
 11 13  1  0  0  0  0
 13 14  1  0  0  0  0
 13 15  1  0  0  0  0
 14 24  1  0  0  0  0
 14 25  1  0  0  0  0
 14 26  1  0  0  0  0
 15 16  1  0  0  0  0
 16 17  1  0  0  0  0
M  END
$$$$
