ZINC000000028395      none
 OpenBabel11202420163D

 23 23  0  0  0  0  0  0  0  0999 V2000
   31.6256   33.0471   61.5088 N   0  0  0  0  0  0  0  0  0  0  0  0
   31.4322   33.0935   60.3903 C   0  0  0  0  0  0  0  0  0  0  0  0
   31.1818   33.1537   58.9411 C   0  0  0  0  0  0  0  0  0  0  0  0
   32.2945   33.9170   58.2702 C   0  0  0  0  0  0  0  0  0  0  0  0
   33.4116   33.9004   58.7421 O   0  0  0  0  0  0  0  0  0  0  0  0
   32.0483   34.6180   57.1457 N   0  0  0  0  0  0  0  0  0  0  0  0
   33.1301   35.3601   56.4936 C   0  0  0  0  0  0  0  0  0  0  0  0
   33.1875   36.7587   57.0520 C   0  0  0  0  0  0  0  0  0  0  0  0
   33.6301   37.8015   56.2597 C   0  0  0  0  0  0  0  0  0  0  0  0
   33.6820   39.0845   56.7716 C   0  0  0  0  0  0  0  0  0  0  0  0
   33.2908   39.3249   58.0755 C   0  0  0  0  0  0  0  0  0  0  0  0
   32.8532   38.2812   58.8694 C   0  0  0  0  0  0  0  0  0  0  0  0
   32.7972   36.9989   58.3561 C   0  0  0  0  0  0  0  0  0  0  0  0
   30.2330   33.6575   58.7569 H   0  0  0  0  0  0  0  0  0  0  0  0
   31.1402   32.1421   58.5372 H   0  0  0  0  0  0  0  0  0  0  0  0
   31.1549   34.6313   56.7682 H   0  0  0  0  0  0  0  0  0  0  0  0
   32.9447   35.4047   55.4204 H   0  0  0  0  0  0  0  0  0  0  0  0
   34.0789   34.8562   56.6778 H   0  0  0  0  0  0  0  0  0  0  0  0
   33.9351   37.6138   55.2408 H   0  0  0  0  0  0  0  0  0  0  0  0
   34.0278   39.8992   56.1527 H   0  0  0  0  0  0  0  0  0  0  0  0
   33.3313   40.3273   58.4753 H   0  0  0  0  0  0  0  0  0  0  0  0
   32.5517   38.4682   59.8894 H   0  0  0  0  0  0  0  0  0  0  0  0
   32.4511   36.1842   58.9749 H   0  0  0  0  0  0  0  0  0  0  0  0
  1  2  3  0  0  0  0
  2  3  1  0  0  0  0
  3  4  1  0  0  0  0
  3 14  1  0  0  0  0
  3 15  1  0  0  0  0
  4  5  2  0  0  0  0
  4  6  1  0  0  0  0
  6  7  1  0  0  0  0
  6 16  1  0  0  0  0
  7  8  1  0  0  0  0
  7 17  1  0  0  0  0
  7 18  1  0  0  0  0
  8 13  2  0  0  0  0
  8  9  1  0  0  0  0
  9 10  2  0  0  0  0
  9 19  1  0  0  0  0
 10 11  1  0  0  0  0
 10 20  1  0  0  0  0
 11 12  2  0  0  0  0
 11 21  1  0  0  0  0
 12 13  1  0  0  0  0
 12 22  1  0  0  0  0
 13 23  1  0  0  0  0
M  END
$$$$
