ZINC000000029018      none
 OpenBabel11202420163D

 30 33  0  0  0  0  0  0  0  0999 V2000
   30.6292   35.6608   64.7363 N   0  0  0  0  0  0  0  0  0  0  0  0
   30.5741   36.9334   64.1883 C   0  0  0  0  0  0  0  0  0  0  0  0
   30.2428   37.9832   64.9380 N   0  0  0  0  0  0  0  0  0  0  0  0
   30.1884   39.1978   64.4242 C   0  0  0  0  0  0  0  0  0  0  0  0
   30.4539   39.4427   63.1594 N   0  0  0  0  0  0  0  0  0  0  0  0
   30.7955   38.4494   62.3316 C   0  0  0  0  0  0  0  0  0  0  0  0
   31.1219   38.3845   61.0282 N   0  0  0  0  0  0  0  0  0  0  0  0
   31.3771   37.1408   60.6935 C   0  0  0  0  0  0  0  0  0  0  0  0
   31.8406   36.5992   59.0821 S   0  0  0  0  0  0  0  0  0  0  0  0
   32.6778   38.0381   58.5048 C   0  0  0  0  0  0  0  0  0  0  0  0
   32.7929   39.1139   59.2728 N   0  0  0  0  0  0  0  0  0  0  0  0
   33.4188   40.2006   58.8509 C   0  0  0  0  0  0  0  0  0  0  0  0
   33.9591   40.2960   57.6588 N   0  0  0  0  0  0  0  0  0  0  0  0
   33.9053   39.2646   56.8034 C   0  0  0  0  0  0  0  0  0  0  0  0
   34.4758   39.3297   55.5249 C   0  0  0  0  0  0  0  0  0  0  0  0
   34.3867   38.2536   54.6927 C   0  0  0  0  0  0  0  0  0  0  0  0
   33.7378   37.0887   55.0927 C   0  0  0  0  0  0  0  0  0  0  0  0
   33.1722   36.9917   56.3300 C   0  0  0  0  0  0  0  0  0  0  0  0
   33.2455   38.0783   57.2084 C   0  0  0  0  0  0  0  0  0  0  0  0
   31.2350   36.3319   61.7827 N   0  0  0  0  0  0  0  0  0  0  0  0
   31.3689   35.3717   61.8098 H   0  0  0  0  0  0  0  0  0  0  0  0
   30.8644   37.1417   62.8416 C   0  0  0  0  0  0  0  0  0  0  0  0
   30.8720   34.9036   64.1807 H   0  0  0  0  0  0  0  0  0  0  0  0
   30.4250   35.5277   65.6752 H   0  0  0  0  0  0  0  0  0  0  0  0
   29.9152   40.0219   65.0666 H   0  0  0  0  0  0  0  0  0  0  0  0
   33.4839   41.0490   59.5160 H   0  0  0  0  0  0  0  0  0  0  0  0
   34.9828   40.2266   55.2011 H   0  0  0  0  0  0  0  0  0  0  0  0
   34.8265   38.3056   53.7076 H   0  0  0  0  0  0  0  0  0  0  0  0
   33.6820   36.2504   54.4142 H   0  0  0  0  0  0  0  0  0  0  0  0
   32.6717   36.0827   56.6296 H   0  0  0  0  0  0  0  0  0  0  0  0
  1  2  1  0  0  0  0
  1 23  1  0  0  0  0
  1 24  1  0  0  0  0
  2 22  2  0  0  0  0
  2  3  1  0  0  0  0
  3  4  2  0  0  0  0
  4  5  1  0  0  0  0
  4 25  1  0  0  0  0
  5  6  2  0  0  0  0
  6 22  1  0  0  0  0
  6  7  1  0  0  0  0
  7  8  2  0  0  0  0
  8  9  1  0  0  0  0
  8 20  1  0  0  0  0
  9 10  1  0  0  0  0
 10 19  2  0  0  0  0
 10 11  1  0  0  0  0
 11 12  2  0  0  0  0
 12 13  1  0  0  0  0
 12 26  1  0  0  0  0
 13 14  2  0  0  0  0
 14 19  1  0  0  0  0
 14 15  1  0  0  0  0
 15 16  2  0  0  0  0
 15 27  1  0  0  0  0
 16 17  1  0  0  0  0
 16 28  1  0  0  0  0
 17 18  2  0  0  0  0
 17 29  1  0  0  0  0
 18 19  1  0  0  0  0
 18 30  1  0  0  0  0
 20 21  1  0  0  0  0
 20 22  1  0  0  0  0
M  END
$$$$
