ZINC000000046151      none
 OpenBabel11202420153D

 24 25  0  0  0  0  0  0  0  0999 V2000
   28.5386   40.0442   65.3833 N   0  0  0  0  0  0  0  0  0  0  0  0
   29.1611   39.3615   64.7224 C   0  0  0  0  0  0  0  0  0  0  0  0
   29.9460   38.5008   63.8894 C   0  0  0  0  0  0  0  0  0  0  0  0
   30.1126   37.1566   64.2304 C   0  0  0  0  0  0  0  0  0  0  0  0
   30.8655   36.3284   63.4235 C   0  0  0  0  0  0  0  0  0  0  0  0
   31.4656   36.8267   62.2819 C   0  0  0  0  0  0  0  0  0  0  0  0
   31.3104   38.1638   61.9364 C   0  0  0  0  0  0  0  0  0  0  0  0
   31.9200   38.6628   60.7808 N   0  0  0  0  0  0  0  0  0  0  0  0
   32.1223   37.8531   59.7225 C   0  0  0  0  0  0  0  0  0  0  0  0
   31.7747   36.6878   59.7725 O   0  0  0  0  0  0  0  0  0  0  0  0
   32.7611   38.3758   58.5115 C   0  0  0  0  0  0  0  0  0  0  0  0
   33.1993   39.6585   58.3367 C   0  0  0  0  0  0  0  0  0  0  0  0
   33.7610   39.8774   57.1013 C   0  0  0  0  0  0  0  0  0  0  0  0
   33.7832   38.8128   56.2909 C   0  0  0  0  0  0  0  0  0  0  0  0
   33.0936   37.4511   57.0534 S   0  0  0  0  0  0  0  0  0  0  0  0
   30.5516   39.0034   62.7376 C   0  0  0  0  0  0  0  0  0  0  0  0
   29.6489   36.7645   65.1236 H   0  0  0  0  0  0  0  0  0  0  0  0
   30.9897   35.2885   63.6866 H   0  0  0  0  0  0  0  0  0  0  0  0
   32.0567   36.1744   61.6563 H   0  0  0  0  0  0  0  0  0  0  0  0
   32.1971   39.5915   60.7409 H   0  0  0  0  0  0  0  0  0  0  0  0
   33.1125   40.4239   59.0937 H   0  0  0  0  0  0  0  0  0  0  0  0
   34.1558   40.8385   56.8064 H   0  0  0  0  0  0  0  0  0  0  0  0
   34.1882   38.8140   55.2898 H   0  0  0  0  0  0  0  0  0  0  0  0
   30.4295   40.0427   62.4705 H   0  0  0  0  0  0  0  0  0  0  0  0
  1  2  3  0  0  0  0
  2  3  1  0  0  0  0
  3 16  2  0  0  0  0
  3  4  1  0  0  0  0
  4  5  2  0  0  0  0
  4 17  1  0  0  0  0
  5  6  1  0  0  0  0
  5 18  1  0  0  0  0
  6  7  2  0  0  0  0
  6 19  1  0  0  0  0
  7  8  1  0  0  0  0
  7 16  1  0  0  0  0
  8  9  1  0  0  0  0
  8 20  1  0  0  0  0
  9 10  2  0  0  0  0
  9 11  1  0  0  0  0
 11 15  1  0  0  0  0
 11 12  2  0  0  0  0
 12 13  1  0  0  0  0
 12 21  1  0  0  0  0
 13 14  2  0  0  0  0
 13 22  1  0  0  0  0
 14 15  1  0  0  0  0
 14 23  1  0  0  0  0
 16 24  1  0  0  0  0
M  END
$$$$
