ZINC000000051919      none
 OpenBabel11202420153D

 31 33  0  0  0  0  0  0  0  0999 V2000
   34.3688   36.0860   52.8516 N   0  0  0  0  0  0  0  0  0  0  0  0
   33.9456   36.2629   54.1740 C   0  0  0  0  0  0  0  0  0  0  0  0
   33.4846   35.1746   54.9110 C   0  0  0  0  0  0  0  0  0  0  0  0
   33.0677   35.3378   56.2075 C   0  0  0  0  0  0  0  0  0  0  0  0
   33.0982   36.6107   56.8156 C   0  0  0  0  0  0  0  0  0  0  0  0
   32.7306   36.9556   58.0676 N   0  0  0  0  0  0  0  0  0  0  0  0
   32.8467   38.1927   58.4101 C   0  0  0  0  0  0  0  0  0  0  0  0
   32.4233   38.8424   59.9922 S   0  0  0  0  0  0  0  0  0  0  0  0
   31.0912   37.7065   60.4522 C   0  0  0  0  0  0  0  0  0  0  0  0
   31.6698   36.5260   61.1889 C   0  0  0  0  0  0  0  0  0  0  0  0
   32.6761   36.6592   61.8527 O   0  0  0  0  0  0  0  0  0  0  0  0
   31.0689   35.3221   61.1102 N   0  0  0  0  0  0  0  0  0  0  0  0
   31.6313   34.1745   61.8264 C   0  0  0  0  0  0  0  0  0  0  0  0
   32.7318   33.3750   61.1260 C   0  0  0  0  0  0  0  0  0  0  0  0
   31.3291   32.7800   61.2742 C   0  0  0  0  0  0  0  0  0  0  0  0
   33.4878   39.1399   57.0751 S   0  0  0  0  0  0  0  0  0  0  0  0
   33.5625   37.6961   56.0676 C   0  0  0  0  0  0  0  0  0  0  0  0
   33.9837   37.5187   54.7522 C   0  0  0  0  0  0  0  0  0  0  0  0
   34.6894   36.8449   52.3395 H   0  0  0  0  0  0  0  0  0  0  0  0
   34.3415   35.2047   52.4475 H   0  0  0  0  0  0  0  0  0  0  0  0
   33.4554   34.1946   54.4583 H   0  0  0  0  0  0  0  0  0  0  0  0
   32.7129   34.4851   56.7673 H   0  0  0  0  0  0  0  0  0  0  0  0
   30.3793   38.2231   61.0960 H   0  0  0  0  0  0  0  0  0  0  0  0
   30.5826   37.3597   59.5527 H   0  0  0  0  0  0  0  0  0  0  0  0
   30.2640   35.2156   60.5793 H   0  0  0  0  0  0  0  0  0  0  0  0
   31.6994   34.2833   62.9088 H   0  0  0  0  0  0  0  0  0  0  0  0
   33.0374   33.7027   60.1325 H   0  0  0  0  0  0  0  0  0  0  0  0
   33.5236   32.9573   61.7478 H   0  0  0  0  0  0  0  0  0  0  0  0
   31.1989   31.9713   61.9932 H   0  0  0  0  0  0  0  0  0  0  0  0
   30.7116   32.7164   60.3781 H   0  0  0  0  0  0  0  0  0  0  0  0
   34.3412   38.3636   54.1823 H   0  0  0  0  0  0  0  0  0  0  0  0
  1  2  1  0  0  0  0
  1 19  1  0  0  0  0
  1 20  1  0  0  0  0
  2 18  2  0  0  0  0
  2  3  1  0  0  0  0
  3  4  2  0  0  0  0
  3 21  1  0  0  0  0
  4  5  1  0  0  0  0
  4 22  1  0  0  0  0
  5 17  2  0  0  0  0
  5  6  1  0  0  0  0
  6  7  2  0  0  0  0
  7  8  1  0  0  0  0
  7 16  1  0  0  0  0
  8  9  1  0  0  0  0
  9 10  1  0  0  0  0
  9 23  1  0  0  0  0
  9 24  1  0  0  0  0
 10 11  2  0  0  0  0
 10 12  1  0  0  0  0
 12 13  1  0  0  0  0
 12 25  1  0  0  0  0
 13 15  1  0  0  0  0
 13 14  1  0  0  0  0
 13 26  1  0  0  0  0
 14 15  1  0  0  0  0
 14 27  1  0  0  0  0
 14 28  1  0  0  0  0
 15 29  1  0  0  0  0
 15 30  1  0  0  0  0
 16 17  1  0  0  0  0
 17 18  1  0  0  0  0
 18 31  1  0  0  0  0
M  END
$$$$
