ZINC000000033232      none
 OpenBabel11202420153D

 33 34  0  0  0  0  0  0  0  0999 V2000
   34.4126   32.6175   55.4771 C   0  0  0  0  0  0  0  0  0  0  0  0
   33.6660   33.6650   56.1784 N   0  0  0  0  0  0  0  0  0  0  0  0
   33.9392   34.9627   55.9386 C   0  0  0  0  0  0  0  0  0  0  0  0
   34.8055   35.2643   55.1404 O   0  0  0  0  0  0  0  0  0  0  0  0
   33.2523   35.9265   56.5836 N   0  0  0  0  0  0  0  0  0  0  0  0
   33.5359   37.2739   56.3346 C   0  0  0  0  0  0  0  0  0  0  0  0
   33.3454   38.2211   57.3324 C   0  0  0  0  0  0  0  0  0  0  0  0
   33.6323   39.5491   57.0855 C   0  0  0  0  0  0  0  0  0  0  0  0
   34.0972   39.9382   55.8423 C   0  0  0  0  0  0  0  0  0  0  0  0
   34.2826   38.9985   54.8453 C   0  0  0  0  0  0  0  0  0  0  0  0
   34.7803   39.4192   53.5163 N   0  0  0  0  0  0  0  0  0  0  0  0
   35.0263   40.5926   53.3016 O   0  0  0  0  0  0  0  0  0  0  0  0
   34.9439   38.5920   52.6373 O   0  0  0  0  0  0  0  0  0  0  0  0
   34.0033   37.6676   55.0879 C   0  0  0  0  0  0  0  0  0  0  0  0
   32.6690   33.3180   57.0970 C   0  0  0  0  0  0  0  0  0  0  0  0
   31.5731   32.5706   56.6853 C   0  0  0  0  0  0  0  0  0  0  0  0
   30.5909   32.2289   57.5938 C   0  0  0  0  0  0  0  0  0  0  0  0
   30.6971   32.6298   58.9130 C   0  0  0  0  0  0  0  0  0  0  0  0
   31.7872   33.3750   59.3267 C   0  0  0  0  0  0  0  0  0  0  0  0
   31.9165   33.8765   60.9836 Cl  0  0  0  0  0  0  0  0  0  0  0  0
   32.7737   33.7198   58.4217 C   0  0  0  0  0  0  0  0  0  0  0  0
   33.8999   32.3654   54.5488 H   0  0  0  0  0  0  0  0  0  0  0  0
   35.4169   32.9762   55.2517 H   0  0  0  0  0  0  0  0  0  0  0  0
   34.4764   31.7317   56.1091 H   0  0  0  0  0  0  0  0  0  0  0  0
   32.5612   35.6859   57.2204 H   0  0  0  0  0  0  0  0  0  0  0  0
   32.9778   37.9187   58.3019 H   0  0  0  0  0  0  0  0  0  0  0  0
   33.4888   40.2855   57.8624 H   0  0  0  0  0  0  0  0  0  0  0  0
   34.3162   40.9781   55.6503 H   0  0  0  0  0  0  0  0  0  0  0  0
   34.1487   36.9340   54.3087 H   0  0  0  0  0  0  0  0  0  0  0  0
   31.4891   32.2569   55.6553 H   0  0  0  0  0  0  0  0  0  0  0  0
   29.7387   31.6478   57.2737 H   0  0  0  0  0  0  0  0  0  0  0  0
   29.9276   32.3613   59.6215 H   0  0  0  0  0  0  0  0  0  0  0  0
   33.6269   34.2973   58.7457 H   0  0  0  0  0  0  0  0  0  0  0  0
  1  2  1  0  0  0  0
  1 22  1  0  0  0  0
  1 23  1  0  0  0  0
  1 24  1  0  0  0  0
  2  3  1  0  0  0  0
  2 15  1  0  0  0  0
  3  4  2  0  0  0  0
  3  5  1  0  0  0  0
  5  6  1  0  0  0  0
  5 25  1  0  0  0  0
  6 14  2  0  0  0  0
  6  7  1  0  0  0  0
  7  8  2  0  0  0  0
  7 26  1  0  0  0  0
  8  9  1  0  0  0  0
  8 27  1  0  0  0  0
  9 10  2  0  0  0  0
  9 28  1  0  0  0  0
 10 11  1  0  0  0  0
 10 14  1  0  0  0  0
 11 12  2  0  0  0  0
 11 13  2  0  0  0  0
 14 29  1  0  0  0  0
 15 21  2  0  0  0  0
 15 16  1  0  0  0  0
 16 17  2  0  0  0  0
 16 30  1  0  0  0  0
 17 18  1  0  0  0  0
 17 31  1  0  0  0  0
 18 19  2  0  0  0  0
 18 32  1  0  0  0  0
 19 20  1  0  0  0  0
 19 21  1  0  0  0  0
 21 33  1  0  0  0  0
M  END
$$$$
