ZINC000000022119      none
 OpenBabel11202420153D

 43 46  0  0  0  0  0  0  0  0999 V2000
   34.0352   37.8737   55.1695 C   0  0  0  0  0  0  0  0  0  0  0  0
   34.0249   36.5787   55.7735 O   0  0  0  0  0  0  0  0  0  0  0  0
   33.4253   36.4693   56.9881 C   0  0  0  0  0  0  0  0  0  0  0  0
   33.3811   35.2388   57.6300 C   0  0  0  0  0  0  0  0  0  0  0  0
   32.7738   35.1235   58.8622 C   0  0  0  0  0  0  0  0  0  0  0  0
   32.2034   36.2462   59.4650 C   0  0  0  0  0  0  0  0  0  0  0  0
   31.5508   36.1272   60.7858 C   0  0  0  0  0  0  0  0  0  0  0  0
   31.4754   37.1095   61.7249 C   0  0  0  0  0  0  0  0  0  0  0  0
   30.7749   36.5873   62.8328 C   0  0  0  0  0  0  0  0  0  0  0  0
   30.4561   37.3032   64.0895 C   0  0  0  0  0  0  0  0  0  0  0  0
   30.9181   36.8309   65.3229 C   0  0  0  0  0  0  0  0  0  0  0  0
   30.6019   37.5309   66.4680 C   0  0  0  0  0  0  0  0  0  0  0  0
   29.8666   38.6254   66.4117 N   0  0  0  0  0  0  0  0  0  0  0  0
   29.4068   39.1018   65.2701 C   0  0  0  0  0  0  0  0  0  0  0  0
   29.6799   38.4672   64.0769 C   0  0  0  0  0  0  0  0  0  0  0  0
   30.4365   35.2786   62.5207 C   0  0  0  0  0  0  0  0  0  0  0  0
   29.6903   34.3438   63.3849 C   0  0  0  0  0  0  0  0  0  0  0  0
   30.2735   33.1380   63.7826 C   0  0  0  0  0  0  0  0  0  0  0  0
   29.5723   32.2718   64.5952 C   0  0  0  0  0  0  0  0  0  0  0  0
   28.2897   32.5890   65.0066 C   0  0  0  0  0  0  0  0  0  0  0  0
   27.7037   33.7789   64.6120 C   0  0  0  0  0  0  0  0  0  0  0  0
   28.3951   34.6576   63.8046 C   0  0  0  0  0  0  0  0  0  0  0  0
   30.9214   35.0079   61.2686 N   0  0  0  0  0  0  0  0  0  0  0  0
   30.8310   34.1642   60.7986 H   0  0  0  0  0  0  0  0  0  0  0  0
   32.2458   37.4806   58.8139 C   0  0  0  0  0  0  0  0  0  0  0  0
   32.8591   37.5884   57.5841 C   0  0  0  0  0  0  0  0  0  0  0  0
   33.0102   38.2140   55.0218 H   0  0  0  0  0  0  0  0  0  0  0  0
   34.5604   38.5736   55.8193 H   0  0  0  0  0  0  0  0  0  0  0  0
   34.5429   37.8214   54.2063 H   0  0  0  0  0  0  0  0  0  0  0  0
   33.8226   34.3707   57.1632 H   0  0  0  0  0  0  0  0  0  0  0  0
   32.7398   34.1661   59.3608 H   0  0  0  0  0  0  0  0  0  0  0  0
   31.8779   38.1079   61.6375 H   0  0  0  0  0  0  0  0  0  0  0  0
   31.5168   35.9336   65.3768 H   0  0  0  0  0  0  0  0  0  0  0  0
   30.9570   37.1763   67.4244 H   0  0  0  0  0  0  0  0  0  0  0  0
   28.8087   40.0011   65.2705 H   0  0  0  0  0  0  0  0  0  0  0  0
   29.3006   38.8629   63.1462 H   0  0  0  0  0  0  0  0  0  0  0  0
   31.2726   32.8871   63.4583 H   0  0  0  0  0  0  0  0  0  0  0  0
   30.0238   31.3418   64.9076 H   0  0  0  0  0  0  0  0  0  0  0  0
   27.7436   31.9048   65.6391 H   0  0  0  0  0  0  0  0  0  0  0  0
   26.7024   34.0200   64.9372 H   0  0  0  0  0  0  0  0  0  0  0  0
   27.9368   35.5861   63.4979 H   0  0  0  0  0  0  0  0  0  0  0  0
   31.8016   38.3506   59.2748 H   0  0  0  0  0  0  0  0  0  0  0  0
   32.8957   38.5436   57.0814 H   0  0  0  0  0  0  0  0  0  0  0  0
  1  2  1  0  0  0  0
  1 27  1  0  0  0  0
  1 28  1  0  0  0  0
  1 29  1  0  0  0  0
  2  3  1  0  0  0  0
  3 26  2  0  0  0  0
  3  4  1  0  0  0  0
  4  5  2  0  0  0  0
  4 30  1  0  0  0  0
  5  6  1  0  0  0  0
  5 31  1  0  0  0  0
  6  7  1  0  0  0  0
  6 25  2  0  0  0  0
  7 23  1  0  0  0  0
  7  8  2  0  0  0  0
  8  9  1  0  0  0  0
  8 32  1  0  0  0  0
  9 10  1  0  0  0  0
  9 16  2  0  0  0  0
 10 15  2  0  0  0  0
 10 11  1  0  0  0  0
 11 12  2  0  0  0  0
 11 33  1  0  0  0  0
 12 13  1  0  0  0  0
 12 34  1  0  0  0  0
 13 14  2  0  0  0  0
 14 15  1  0  0  0  0
 14 35  1  0  0  0  0
 15 36  1  0  0  0  0
 16 17  1  0  0  0  0
 16 23  1  0  0  0  0
 17 22  2  0  0  0  0
 17 18  1  0  0  0  0
 18 19  2  0  0  0  0
 18 37  1  0  0  0  0
 19 20  1  0  0  0  0
 19 38  1  0  0  0  0
 20 21  2  0  0  0  0
 20 39  1  0  0  0  0
 21 22  1  0  0  0  0
 21 40  1  0  0  0  0
 22 41  1  0  0  0  0
 23 24  1  0  0  0  0
 25 26  1  0  0  0  0
 25 42  1  0  0  0  0
 26 43  1  0  0  0  0
M  END
$$$$
