ZINC000000009288      none
 OpenBabel11202420153D

 23 24  0  0  0  0  0  0  0  0999 V2000
   31.7777   36.1425   64.5720 N   0  0  0  0  0  0  0  0  0  0  0  0
   32.0845   36.3704   63.2796 C   0  0  0  0  0  0  0  0  0  0  0  0
   33.2441   36.4836   62.9425 O   0  0  0  0  0  0  0  0  0  0  0  0
   30.9866   36.4911   62.2544 C   0  0  0  0  0  0  0  0  0  0  0  0
   31.5919   36.7431   60.8975 C   0  0  0  0  0  0  0  0  0  0  0  0
   31.9193   35.7654   60.0782 N   0  0  0  0  0  0  0  0  0  0  0  0
   32.4507   35.8680   58.8767 C   0  0  0  0  0  0  0  0  0  0  0  0
   32.6636   34.8086   58.3118 O   0  0  0  0  0  0  0  0  0  0  0  0
   32.8224   37.0603   58.1202 C   0  0  0  0  0  0  0  0  0  0  0  0
   33.3812   36.9815   56.8402 C   0  0  0  0  0  0  0  0  0  0  0  0
   33.7121   38.1261   56.1721 C   0  0  0  0  0  0  0  0  0  0  0  0
   33.5069   39.3785   56.7340 C   0  0  0  0  0  0  0  0  0  0  0  0
   32.9565   39.4899   57.9985 C   0  0  0  0  0  0  0  0  0  0  0  0
   32.6200   38.3426   58.6780 C   0  0  0  0  0  0  0  0  0  0  0  0
   31.9006   38.3430   60.2994 S   0  0  0  0  0  0  0  0  0  0  0  0
   32.4841   36.0688   65.2325 H   0  0  0  0  0  0  0  0  0  0  0  0
   30.8502   36.0520   64.8416 H   0  0  0  0  0  0  0  0  0  0  0  0
   30.4100   35.5663   62.2290 H   0  0  0  0  0  0  0  0  0  0  0  0
   30.3313   37.3206   62.5197 H   0  0  0  0  0  0  0  0  0  0  0  0
   33.5503   36.0185   56.3814 H   0  0  0  0  0  0  0  0  0  0  0  0
   34.1427   38.0548   55.1842 H   0  0  0  0  0  0  0  0  0  0  0  0
   33.7778   40.2673   56.1835 H   0  0  0  0  0  0  0  0  0  0  0  0
   32.7936   40.4603   58.4436 H   0  0  0  0  0  0  0  0  0  0  0  0
  1  2  1  0  0  0  0
  1 16  1  0  0  0  0
  1 17  1  0  0  0  0
  2  3  2  0  0  0  0
  2  4  1  0  0  0  0
  4  5  1  0  0  0  0
  4 18  1  0  0  0  0
  4 19  1  0  0  0  0
  5 15  1  0  0  0  0
  5  6  2  0  0  0  0
  6  7  1  0  0  0  0
  7  8  2  0  0  0  0
  7  9  1  0  0  0  0
  9 14  2  0  0  0  0
  9 10  1  0  0  0  0
 10 11  2  0  0  0  0
 10 20  1  0  0  0  0
 11 12  1  0  0  0  0
 11 21  1  0  0  0  0
 12 13  2  0  0  0  0
 12 22  1  0  0  0  0
 13 14  1  0  0  0  0
 13 23  1  0  0  0  0
 14 15  1  0  0  0  0
M  END
$$$$
