ZINC000000046485      none
 OpenBabel11202420153D

 21 21  0  0  0  0  0  0  0  0999 V2000
   33.0789   36.8730   62.7874 N   0  0  0  0  0  0  0  0  0  0  0  0
   32.1739   37.2942   62.2453 C   0  0  0  0  0  0  0  0  0  0  0  0
   31.0330   37.8252   61.5617 C   0  0  0  0  0  0  0  0  0  0  0  0
   29.7131   37.4834   61.9992 C   0  0  0  0  0  0  0  0  0  0  0  0
   28.6659   37.2122   62.3465 N   0  0  0  0  0  0  0  0  0  0  0  0
   31.1977   38.6317   60.5347 N   0  0  0  0  0  0  0  0  0  0  0  0
   32.3867   38.9438   60.1438 N   0  0  0  0  0  0  0  0  0  0  0  0
   32.7993   38.6323   58.8478 C   0  0  0  0  0  0  0  0  0  0  0  0
   33.1856   39.6451   57.9774 C   0  0  0  0  0  0  0  0  0  0  0  0
   33.5993   39.3332   56.6978 C   0  0  0  0  0  0  0  0  0  0  0  0
   33.6181   38.0144   56.2772 C   0  0  0  0  0  0  0  0  0  0  0  0
   34.1313   37.6269   54.6647 Cl  0  0  0  0  0  0  0  0  0  0  0  0
   33.2282   37.0044   57.1392 C   0  0  0  0  0  0  0  0  0  0  0  0
   33.2498   35.5957   56.6853 N   0  0  0  0  0  0  0  0  0  0  0  0
   33.6106   35.3259   55.5537 O   0  0  0  0  0  0  0  0  0  0  0  0
   32.9066   34.7062   57.4433 O   0  0  0  0  0  0  0  0  0  0  0  0
   32.8193   37.3094   58.4224 C   0  0  0  0  0  0  0  0  0  0  0  0
   32.9940   39.3949   60.7509 H   0  0  0  0  0  0  0  0  0  0  0  0
   33.1665   40.6745   58.3035 H   0  0  0  0  0  0  0  0  0  0  0  0
   33.9041   40.1191   56.0228 H   0  0  0  0  0  0  0  0  0  0  0  0
   32.5151   36.5208   59.0947 H   0  0  0  0  0  0  0  0  0  0  0  0
  1  2  3  0  0  0  0
  2  3  1  0  0  0  0
  3  4  1  0  0  0  0
  3  6  2  0  0  0  0
  4  5  3  0  0  0  0
  6  7  1  0  0  0  0
  7  8  1  0  0  0  0
  7 18  1  0  0  0  0
  8 17  2  0  0  0  0
  8  9  1  0  0  0  0
  9 10  2  0  0  0  0
  9 19  1  0  0  0  0
 10 11  1  0  0  0  0
 10 20  1  0  0  0  0
 11 12  1  0  0  0  0
 11 13  2  0  0  0  0
 13 14  1  0  0  0  0
 13 17  1  0  0  0  0
 14 15  2  0  0  0  0
 14 16  2  0  0  0  0
 17 21  1  0  0  0  0
M  END
$$$$
