ZINC000000053290      none
 OpenBabel11202420153D

 42 44  0  0  1  0  0  0  0  0999 V2000
   33.1281   34.9563   55.3956 C   0  0  0  0  0  0  0  0  0  0  0  0
   33.0742   35.9617   56.5477 C   0  0  0  0  0  0  0  0  0  0  0  0
   33.0802   35.2602   57.7928 O   0  0  0  0  0  0  0  0  0  0  0  0
   32.4371   35.8485   58.8355 C   0  0  0  0  0  0  0  0  0  0  0  0
   31.8564   35.0671   59.8237 C   0  0  0  0  0  0  0  0  0  0  0  0
   31.2036   35.6675   60.8829 C   0  0  0  0  0  0  0  0  0  0  0  0
   31.1287   37.0460   60.9584 C   0  0  0  0  0  0  0  0  0  0  0  0
   30.2954   37.8087   62.3107 S   0  0  0  0  0  0  0  0  0  0  0  0
   28.9143   37.8195   61.9763 O   0  0  0  0  0  0  0  0  0  0  0  0
   31.0288   38.9853   62.6219 O   0  0  0  0  0  0  0  0  0  0  0  0
   30.4527   36.8007   63.6151 N   0  0  0  0  0  0  0  0  0  0  0  0
   29.4848   35.7459   63.9186 C   0  0  0  0  0  0  0  0  0  0  0  0
   30.2091   34.5610   64.6162 C   0  0  0  0  0  0  0  0  0  0  0  0
   31.3469   35.4979   65.7220 S   0  0  0  0  0  0  0  0  0  0  0  0
   31.5773   36.8983   64.5578 C   0  0  2  0  0  0  0  0  0  0  0  0
   32.5251   36.7990   64.0285 H   0  0  0  0  0  0  0  0  0  0  0  0
   31.5272   38.2093   65.2990 C   0  0  0  0  0  0  0  0  0  0  0  0
   32.6972   38.8009   65.7371 C   0  0  0  0  0  0  0  0  0  0  0  0
   32.6517   40.0064   66.4120 C   0  0  0  0  0  0  0  0  0  0  0  0
   31.4357   40.6177   66.6536 C   0  0  0  0  0  0  0  0  0  0  0  0
   30.2651   40.0233   66.2207 C   0  0  0  0  0  0  0  0  0  0  0  0
   30.3107   38.8181   65.5453 C   0  0  0  0  0  0  0  0  0  0  0  0
   31.7018   37.8270   59.9718 C   0  0  0  0  0  0  0  0  0  0  0  0
   32.3606   37.2315   58.9136 C   0  0  0  0  0  0  0  0  0  0  0  0
   34.0390   34.3627   55.4738 H   0  0  0  0  0  0  0  0  0  0  0  0
   32.2603   34.2988   55.4464 H   0  0  0  0  0  0  0  0  0  0  0  0
   33.1236   35.4914   54.4461 H   0  0  0  0  0  0  0  0  0  0  0  0
   32.1635   36.5554   56.4696 H   0  0  0  0  0  0  0  0  0  0  0  0
   33.9421   36.6192   56.4971 H   0  0  0  0  0  0  0  0  0  0  0  0
   31.9143   33.9902   59.7649 H   0  0  0  0  0  0  0  0  0  0  0  0
   30.7517   35.0595   61.6527 H   0  0  0  0  0  0  0  0  0  0  0  0
   29.0266   35.3973   62.9931 H   0  0  0  0  0  0  0  0  0  0  0  0
   28.7127   36.1394   64.5796 H   0  0  0  0  0  0  0  0  0  0  0  0
   30.7627   33.9562   63.8980 H   0  0  0  0  0  0  0  0  0  0  0  0
   29.5115   33.9509   65.1899 H   0  0  0  0  0  0  0  0  0  0  0  0
   33.6474   38.3234   65.5480 H   0  0  0  0  0  0  0  0  0  0  0  0
   33.5662   40.4707   66.7503 H   0  0  0  0  0  0  0  0  0  0  0  0
   31.4000   41.5596   67.1810 H   0  0  0  0  0  0  0  0  0  0  0  0
   29.3151   40.5009   66.4098 H   0  0  0  0  0  0  0  0  0  0  0  0
   29.3963   38.3539   65.2067 H   0  0  0  0  0  0  0  0  0  0  0  0
   31.6378   38.9035   60.0306 H   0  0  0  0  0  0  0  0  0  0  0  0
   32.8119   37.8420   58.1455 H   0  0  0  0  0  0  0  0  0  0  0  0
  1  2  1  0  0  0  0
  1 25  1  0  0  0  0
  1 26  1  0  0  0  0
  1 27  1  0  0  0  0
  2  3  1  0  0  0  0
  2 28  1  0  0  0  0
  2 29  1  0  0  0  0
  3  4  1  0  0  0  0
  4 24  2  0  0  0  0
  4  5  1  0  0  0  0
  5  6  2  0  0  0  0
  5 30  1  0  0  0  0
  6  7  1  0  0  0  0
  6 31  1  0  0  0  0
  7  8  1  0  0  0  0
  7 23  2  0  0  0  0
  8  9  2  0  0  0  0
  8 10  2  0  0  0  0
  8 11  1  0  0  0  0
 11 15  1  0  0  0  0
 11 12  1  0  0  0  0
 12 13  1  0  0  0  0
 12 32  1  0  0  0  0
 12 33  1  0  0  0  0
 13 14  1  0  0  0  0
 13 34  1  0  0  0  0
 13 35  1  0  0  0  0
 14 15  1  0  0  0  0
 15 16  1  6  0  0  0
 15 17  1  0  0  0  0
 17 22  2  0  0  0  0
 17 18  1  0  0  0  0
 18 19  2  0  0  0  0
 18 36  1  0  0  0  0
 19 20  1  0  0  0  0
 19 37  1  0  0  0  0
 20 21  2  0  0  0  0
 20 38  1  0  0  0  0
 21 22  1  0  0  0  0
 21 39  1  0  0  0  0
 22 40  1  0  0  0  0
 23 24  1  0  0  0  0
 23 41  1  0  0  0  0
 24 42  1  0  0  0  0
M  END
$$$$
