ZINC000000035512      none
 OpenBabel11202420153D

 36 39  0  0  1  0  0  0  0  0999 V2000
   31.2485   38.3774   62.6042 O   0  0  0  0  0  0  0  0  0  0  0  0
   31.2319   37.2141   61.7745 C   0  0  1  0  0  0  0  0  0  0  0  0
   30.2030   36.8832   61.6330 H   0  0  0  0  0  0  0  0  0  0  0  0
   31.8423   37.5429   60.4364 C   0  0  0  0  0  0  0  0  0  0  0  0
   32.3099   38.7085   60.0967 N   0  0  0  0  0  0  0  0  0  0  0  0
   32.7847   38.6572   58.8256 C   0  0  0  0  0  0  0  0  0  0  0  0
   33.3818   39.5969   57.9812 C   0  0  0  0  0  0  0  0  0  0  0  0
   33.7629   39.2341   56.7205 C   0  0  0  0  0  0  0  0  0  0  0  0
   33.5634   37.9382   56.2662 C   0  0  0  0  0  0  0  0  0  0  0  0
   32.9758   36.9946   57.0815 C   0  0  0  0  0  0  0  0  0  0  0  0
   32.5821   37.3450   58.3659 C   0  0  0  0  0  0  0  0  0  0  0  0
   31.9838   36.6645   59.4074 N   0  0  0  0  0  0  0  0  0  0  0  0
   31.7145   35.7326   59.4058 H   0  0  0  0  0  0  0  0  0  0  0  0
   32.0387   36.0993   62.4430 C   0  0  1  0  0  0  0  0  0  0  0  0
   32.3288   35.3617   61.6946 H   0  0  0  0  0  0  0  0  0  0  0  0
   33.2105   36.6540   63.0441 O   0  0  0  0  0  0  0  0  0  0  0  0
   31.1968   35.4357   63.5022 C   0  0  0  0  0  0  0  0  0  0  0  0
   30.0636   34.8344   63.2854 N   0  0  0  0  0  0  0  0  0  0  0  0
   29.5733   34.3489   64.4548 C   0  0  0  0  0  0  0  0  0  0  0  0
   28.4200   33.6368   64.7946 C   0  0  0  0  0  0  0  0  0  0  0  0
   28.1986   33.2799   66.0944 C   0  0  0  0  0  0  0  0  0  0  0  0
   29.1092   33.6167   67.0859 C   0  0  0  0  0  0  0  0  0  0  0  0
   30.2538   34.3188   66.7739 C   0  0  0  0  0  0  0  0  0  0  0  0
   30.4954   34.6906   65.4584 C   0  0  0  0  0  0  0  0  0  0  0  0
   31.5139   35.3730   64.8236 N   0  0  0  0  0  0  0  0  0  0  0  0
   32.3074   35.7414   65.2426 H   0  0  0  0  0  0  0  0  0  0  0  0
   32.1339   38.7276   62.7730 H   0  0  0  0  0  0  0  0  0  0  0  0
   33.5458   40.6072   58.3262 H   0  0  0  0  0  0  0  0  0  0  0  0
   34.2244   39.9632   56.0710 H   0  0  0  0  0  0  0  0  0  0  0  0
   33.8703   37.6670   55.2668 H   0  0  0  0  0  0  0  0  0  0  0  0
   32.8222   35.9876   56.7227 H   0  0  0  0  0  0  0  0  0  0  0  0
   33.0276   37.3194   63.7216 H   0  0  0  0  0  0  0  0  0  0  0  0
   27.7046   33.3696   64.0308 H   0  0  0  0  0  0  0  0  0  0  0  0
   27.3059   32.7297   66.3530 H   0  0  0  0  0  0  0  0  0  0  0  0
   28.9198   33.3271   68.1090 H   0  0  0  0  0  0  0  0  0  0  0  0
   30.9592   34.5788   67.5495 H   0  0  0  0  0  0  0  0  0  0  0  0
  1  2  1  0  0  0  0
  1 27  1  0  0  0  0
  2  3  1  6  0  0  0
  2  4  1  0  0  0  0
  2 14  1  0  0  0  0
  4 12  1  0  0  0  0
  4  5  2  0  0  0  0
  5  6  1  0  0  0  0
  6 11  2  0  0  0  0
  6  7  1  0  0  0  0
  7  8  2  0  0  0  0
  7 28  1  0  0  0  0
  8  9  1  0  0  0  0
  8 29  1  0  0  0  0
  9 10  2  0  0  0  0
  9 30  1  0  0  0  0
 10 11  1  0  0  0  0
 10 31  1  0  0  0  0
 11 12  1  0  0  0  0
 12 13  1  0  0  0  0
 14 15  1  6  0  0  0
 14 16  1  0  0  0  0
 14 17  1  0  0  0  0
 16 32  1  0  0  0  0
 17 25  1  0  0  0  0
 17 18  2  0  0  0  0
 18 19  1  0  0  0  0
 19 24  2  0  0  0  0
 19 20  1  0  0  0  0
 20 21  2  0  0  0  0
 20 33  1  0  0  0  0
 21 22  1  0  0  0  0
 21 34  1  0  0  0  0
 22 23  2  0  0  0  0
 22 35  1  0  0  0  0
 23 24  1  0  0  0  0
 23 36  1  0  0  0  0
 24 25  1  0  0  0  0
 25 26  1  0  0  0  0
M  END
$$$$
