ZINC000000032394      none
 OpenBabel11202420153D

 19 19  0  0  0  0  0  0  0  0999 V2000
   31.2858   36.0793   63.9841 N   0  0  0  0  0  0  0  0  0  0  0  0
   31.5835   35.8001   62.9239 C   0  0  0  0  0  0  0  0  0  0  0  0
   31.9588   35.4481   61.5876 C   0  0  0  0  0  0  0  0  0  0  0  0
   32.4514   34.1335   61.3050 C   0  0  0  0  0  0  0  0  0  0  0  0
   32.8422   33.0907   61.0808 N   0  0  0  0  0  0  0  0  0  0  0  0
   31.8461   36.3736   60.5746 C   0  0  0  0  0  0  0  0  0  0  0  0
   32.2029   36.0388   59.3038 N   0  0  0  0  0  0  0  0  0  0  0  0
   32.6913   37.0142   58.4378 C   0  0  0  0  0  0  0  0  0  0  0  0
   32.8116   38.3281   58.8777 C   0  0  0  0  0  0  0  0  0  0  0  0
   33.2985   39.2872   58.0077 C   0  0  0  0  0  0  0  0  0  0  0  0
   33.6502   38.8976   56.7213 C   0  0  0  0  0  0  0  0  0  0  0  0
   34.2658   40.0614   55.5897 Cl  0  0  0  0  0  0  0  0  0  0  0  0
   33.5044   37.5740   56.3519 C   0  0  0  0  0  0  0  0  0  0  0  0
   33.0417   36.6808   57.2056 N   0  0  0  0  0  0  0  0  0  0  0  0
   31.4745   37.3649   60.7877 H   0  0  0  0  0  0  0  0  0  0  0  0
   32.1208   35.1202   59.0030 H   0  0  0  0  0  0  0  0  0  0  0  0
   32.5282   38.5960   59.8848 H   0  0  0  0  0  0  0  0  0  0  0  0
   33.4031   40.3153   58.3215 H   0  0  0  0  0  0  0  0  0  0  0  0
   33.7763   37.2660   55.3531 H   0  0  0  0  0  0  0  0  0  0  0  0
  1  2  3  0  0  0  0
  2  3  1  0  0  0  0
  3  4  1  0  0  0  0
  3  6  2  0  0  0  0
  4  5  3  0  0  0  0
  6  7  1  0  0  0  0
  6 15  1  0  0  0  0
  7  8  1  0  0  0  0
  7 16  1  0  0  0  0
  8 14  2  0  0  0  0
  8  9  1  0  0  0  0
  9 10  2  0  0  0  0
  9 17  1  0  0  0  0
 10 11  1  0  0  0  0
 10 18  1  0  0  0  0
 11 12  1  0  0  0  0
 11 13  2  0  0  0  0
 13 14  1  0  0  0  0
 13 19  1  0  0  0  0
M  END
$$$$
