ZINC000000040631      none
 OpenBabel11202420153D

 29 30  0  0  0  0  0  0  0  0999 V2000
   32.3160   36.8561   66.7590 N   0  0  0  0  0  0  0  0  0  0  0  0
   32.1869   36.2902   65.4850 C   0  0  0  0  0  0  0  0  0  0  0  0
   31.2454   35.2948   65.2595 C   0  0  0  0  0  0  0  0  0  0  0  0
   31.1155   34.7395   64.0019 C   0  0  0  0  0  0  0  0  0  0  0  0
   31.9327   35.1699   62.9649 C   0  0  0  0  0  0  0  0  0  0  0  0
   31.8042   34.6033   61.6912 N   0  0  0  0  0  0  0  0  0  0  0  0
   30.7610   35.2685   60.5906 S   0  0  0  0  0  0  0  0  0  0  0  0
   30.4316   34.2338   59.6738 O   0  0  0  0  0  0  0  0  0  0  0  0
   29.7871   35.9813   61.3408 O   0  0  0  0  0  0  0  0  0  0  0  0
   31.6651   36.4735   59.6768 C   0  0  0  0  0  0  0  0  0  0  0  0
   31.7065   37.7845   60.1138 C   0  0  0  0  0  0  0  0  0  0  0  0
   32.4199   38.7289   59.3996 C   0  0  0  0  0  0  0  0  0  0  0  0
   33.0835   38.3646   58.2430 C   0  0  0  0  0  0  0  0  0  0  0  0
   33.0375   37.0549   57.8029 C   0  0  0  0  0  0  0  0  0  0  0  0
   32.3284   36.1094   58.5201 C   0  0  0  0  0  0  0  0  0  0  0  0
   32.8776   36.1618   63.1916 C   0  0  0  0  0  0  0  0  0  0  0  0
   33.0045   36.7203   64.4482 C   0  0  0  0  0  0  0  0  0  0  0  0
   32.9764   37.5485   66.9176 H   0  0  0  0  0  0  0  0  0  0  0  0
   31.7422   36.5584   67.4822 H   0  0  0  0  0  0  0  0  0  0  0  0
   30.6125   34.9572   66.0668 H   0  0  0  0  0  0  0  0  0  0  0  0
   30.3808   33.9677   63.8256 H   0  0  0  0  0  0  0  0  0  0  0  0
   32.3263   33.8212   61.4533 H   0  0  0  0  0  0  0  0  0  0  0  0
   31.1846   38.0699   61.0152 H   0  0  0  0  0  0  0  0  0  0  0  0
   32.4556   39.7521   59.7431 H   0  0  0  0  0  0  0  0  0  0  0  0
   33.6378   39.1032   57.6830 H   0  0  0  0  0  0  0  0  0  0  0  0
   33.5557   36.7704   56.8992 H   0  0  0  0  0  0  0  0  0  0  0  0
   32.2925   35.0862   58.1762 H   0  0  0  0  0  0  0  0  0  0  0  0
   33.5135   36.4964   62.3853 H   0  0  0  0  0  0  0  0  0  0  0  0
   33.7399   37.4914   64.6248 H   0  0  0  0  0  0  0  0  0  0  0  0
  1  2  1  0  0  0  0
  1 18  1  0  0  0  0
  1 19  1  0  0  0  0
  2 17  2  0  0  0  0
  2  3  1  0  0  0  0
  3  4  2  0  0  0  0
  3 20  1  0  0  0  0
  4  5  1  0  0  0  0
  4 21  1  0  0  0  0
  5  6  1  0  0  0  0
  5 16  2  0  0  0  0
  6  7  1  0  0  0  0
  6 22  1  0  0  0  0
  7  8  2  0  0  0  0
  7  9  2  0  0  0  0
  7 10  1  0  0  0  0
 10 15  2  0  0  0  0
 10 11  1  0  0  0  0
 11 12  2  0  0  0  0
 11 23  1  0  0  0  0
 12 13  1  0  0  0  0
 12 24  1  0  0  0  0
 13 14  2  0  0  0  0
 13 25  1  0  0  0  0
 14 15  1  0  0  0  0
 14 26  1  0  0  0  0
 15 27  1  0  0  0  0
 16 17  1  0  0  0  0
 16 28  1  0  0  0  0
 17 29  1  0  0  0  0
M  END
$$$$
