ZINC000000032891      none
 OpenBabel11202420153D

 21 22  0  0  0  0  0  0  0  0999 V2000
   30.6590   36.1628   62.3836 O   0  0  0  0  0  0  0  0  0  0  0  0
   31.1125   35.6066   61.3986 C   0  0  0  0  0  0  0  0  0  0  0  0
   31.5883   36.4852   60.4378 C   0  0  0  0  0  0  0  0  0  0  0  0
   32.1429   36.0669   59.2476 C   0  0  0  0  0  0  0  0  0  0  0  0
   32.6534   36.9955   58.2181 C   0  0  0  0  0  0  0  0  0  0  0  0
   33.2081   36.4973   57.0376 C   0  0  0  0  0  0  0  0  0  0  0  0
   33.6790   37.3700   56.0786 C   0  0  0  0  0  0  0  0  0  0  0  0
   33.6114   38.7360   56.2888 C   0  0  0  0  0  0  0  0  0  0  0  0
   33.0677   39.2363   57.4587 C   0  0  0  0  0  0  0  0  0  0  0  0
   32.5887   38.3749   58.4239 C   0  0  0  0  0  0  0  0  0  0  0  0
   32.1837   34.2899   59.0748 S   0  0  0  0  0  0  0  0  0  0  0  0
   31.4981   33.4472   60.4918 C   0  0  0  0  0  0  0  0  0  0  0  0
   31.4345   32.2359   60.5787 O   0  0  0  0  0  0  0  0  0  0  0  0
   31.0513   34.2871   61.4634 N   0  0  0  0  0  0  0  0  0  0  0  0
   30.6648   33.8913   62.2602 H   0  0  0  0  0  0  0  0  0  0  0  0
   31.5211   37.5458   60.6306 H   0  0  0  0  0  0  0  0  0  0  0  0
   33.2652   35.4313   56.8741 H   0  0  0  0  0  0  0  0  0  0  0  0
   34.1045   36.9861   55.1632 H   0  0  0  0  0  0  0  0  0  0  0  0
   33.9849   39.4147   55.5364 H   0  0  0  0  0  0  0  0  0  0  0  0
   33.0180   40.3035   57.6164 H   0  0  0  0  0  0  0  0  0  0  0  0
   32.1644   38.7667   59.3365 H   0  0  0  0  0  0  0  0  0  0  0  0
  1  2  2  0  0  0  0
  2 14  1  0  0  0  0
  2  3  1  0  0  0  0
  3  4  2  0  0  0  0
  3 16  1  0  0  0  0
  4  5  1  0  0  0  0
  4 11  1  0  0  0  0
  5 10  2  0  0  0  0
  5  6  1  0  0  0  0
  6  7  2  0  0  0  0
  6 17  1  0  0  0  0
  7  8  1  0  0  0  0
  7 18  1  0  0  0  0
  8  9  2  0  0  0  0
  8 19  1  0  0  0  0
  9 10  1  0  0  0  0
  9 20  1  0  0  0  0
 10 21  1  0  0  0  0
 11 12  1  0  0  0  0
 12 13  2  0  0  0  0
 12 14  1  0  0  0  0
 14 15  1  0  0  0  0
M  END
$$$$
