ZINC000000028995      none
 OpenBabel11202420163D

 33 36  0  0  1  0  0  0  0  0999 V2000
   28.7558   36.5726   60.3069 O   0  0  0  0  0  0  0  0  0  0  0  0
   29.8253   36.1579   60.6987 C   0  0  0  0  0  0  0  0  0  0  0  0
   30.5354   35.0411   59.9683 C   0  0  0  0  0  0  0  0  0  0  0  0
   32.0520   35.2125   60.0874 C   0  0  1  0  0  0  0  0  0  0  0  0
   32.5510   34.3303   59.6862 H   0  0  0  0  0  0  0  0  0  0  0  0
   32.4830   36.4306   59.3119 C   0  0  0  0  0  0  0  0  0  0  0  0
   32.8393   36.3125   57.9815 C   0  0  0  0  0  0  0  0  0  0  0  0
   33.2308   37.4306   57.2689 C   0  0  0  0  0  0  0  0  0  0  0  0
   33.2746   38.6651   57.8893 C   0  0  0  0  0  0  0  0  0  0  0  0
   32.9230   38.7823   59.2210 C   0  0  0  0  0  0  0  0  0  0  0  0
   32.5277   37.6650   59.9324 C   0  0  0  0  0  0  0  0  0  0  0  0
   32.4137   35.3796   61.5080 N   0  0  0  0  0  0  0  0  0  0  0  0
   31.6712   36.3106   62.2175 C   0  0  0  0  0  0  0  0  0  0  0  0
   31.9810   36.9602   63.2976 N   0  0  0  0  0  0  0  0  0  0  0  0
   30.9591   37.7953   63.6404 C   0  0  0  0  0  0  0  0  0  0  0  0
   30.7799   38.7016   64.6868 C   0  0  0  0  0  0  0  0  0  0  0  0
   29.6116   39.4257   64.7747 C   0  0  0  0  0  0  0  0  0  0  0  0
   28.6108   39.2602   63.8294 C   0  0  0  0  0  0  0  0  0  0  0  0
   28.7703   38.3643   62.7921 C   0  0  0  0  0  0  0  0  0  0  0  0
   29.9409   37.6299   62.6842 C   0  0  0  0  0  0  0  0  0  0  0  0
   30.4071   36.6818   61.7949 N   0  0  0  0  0  0  0  0  0  0  0  0
   30.2514   35.0597   58.9160 H   0  0  0  0  0  0  0  0  0  0  0  0
   30.2445   34.0853   60.4039 H   0  0  0  0  0  0  0  0  0  0  0  0
   32.8087   35.3474   57.4978 H   0  0  0  0  0  0  0  0  0  0  0  0
   33.5059   37.3390   56.2286 H   0  0  0  0  0  0  0  0  0  0  0  0
   33.5837   39.5380   57.3336 H   0  0  0  0  0  0  0  0  0  0  0  0
   32.9574   39.7468   59.7057 H   0  0  0  0  0  0  0  0  0  0  0  0
   32.2532   37.7566   60.9730 H   0  0  0  0  0  0  0  0  0  0  0  0
   33.1275   34.8686   61.9205 H   0  0  0  0  0  0  0  0  0  0  0  0
   31.5557   38.8346   65.4263 H   0  0  0  0  0  0  0  0  0  0  0  0
   29.4743   40.1271   65.5845 H   0  0  0  0  0  0  0  0  0  0  0  0
   27.6988   39.8336   63.9076 H   0  0  0  0  0  0  0  0  0  0  0  0
   27.9841   38.2371   62.0628 H   0  0  0  0  0  0  0  0  0  0  0  0
  1  2  2  0  0  0  0
  2 21  1  0  0  0  0
  2  3  1  0  0  0  0
  3  4  1  0  0  0  0
  3 22  1  0  0  0  0
  3 23  1  0  0  0  0
  4  5  1  6  0  0  0
  4  6  1  0  0  0  0
  4 12  1  0  0  0  0
  6 11  2  0  0  0  0
  6  7  1  0  0  0  0
  7  8  2  0  0  0  0
  7 24  1  0  0  0  0
  8  9  1  0  0  0  0
  8 25  1  0  0  0  0
  9 10  2  0  0  0  0
  9 26  1  0  0  0  0
 10 11  1  0  0  0  0
 10 27  1  0  0  0  0
 11 28  1  0  0  0  0
 12 13  1  0  0  0  0
 12 29  1  0  0  0  0
 13 21  1  0  0  0  0
 13 14  2  0  0  0  0
 14 15  1  0  0  0  0
 15 20  2  0  0  0  0
 15 16  1  0  0  0  0
 16 17  2  0  0  0  0
 16 30  1  0  0  0  0
 17 18  1  0  0  0  0
 17 31  1  0  0  0  0
 18 19  2  0  0  0  0
 18 32  1  0  0  0  0
 19 20  1  0  0  0  0
 19 33  1  0  0  0  0
 20 21  1  0  0  0  0
M  END
$$$$
