ZINC000000042867      none
 OpenBabel11202420153D

 41 42  0  0  1  0  0  0  0  0999 V2000
   31.0582   38.2105   61.3513 C   0  0  0  0  0  0  0  0  0  0  0  0
   31.5751   36.9498   61.9951 C   0  0  0  0  0  0  0  0  0  0  0  0
   31.6060   36.8562   63.3420 C   0  0  0  0  0  0  0  0  0  0  0  0
   31.1617   37.9218   64.1594 C   0  0  0  0  0  0  0  0  0  0  0  0
   30.0129   38.3143   64.0762 O   0  0  0  0  0  0  0  0  0  0  0  0
   32.0118   38.5029   65.0316 O   0  0  0  0  0  0  0  0  0  0  0  0
   31.4445   39.0504   66.2235 C   0  0  0  0  0  0  0  0  0  0  0  0
   32.4683   38.9727   67.3579 C   0  0  0  0  0  0  0  0  0  0  0  0
   33.7163   39.7703   66.9738 C   0  0  0  0  0  0  0  0  0  0  0  0
   31.8612   39.5589   68.6339 C   0  0  0  0  0  0  0  0  0  0  0  0
   32.1330   35.5713   63.9478 C   0  0  1  0  0  0  0  0  0  0  0  0
   32.9776   35.8238   64.5889 H   0  0  0  0  0  0  0  0  0  0  0  0
   31.0505   34.9911   64.8211 C   0  0  0  0  0  0  0  0  0  0  0  0
   30.9790   35.3404   66.1570 C   0  0  0  0  0  0  0  0  0  0  0  0
   29.9870   34.8087   66.9593 C   0  0  0  0  0  0  0  0  0  0  0  0
   29.0646   33.9277   66.4266 C   0  0  0  0  0  0  0  0  0  0  0  0
   29.1349   33.5777   65.0890 C   0  0  0  0  0  0  0  0  0  0  0  0
   28.2341   32.7165   64.5673 F   0  0  0  0  0  0  0  0  0  0  0  0
   30.1264   34.1147   64.2851 C   0  0  0  0  0  0  0  0  0  0  0  0
   32.5714   34.5229   63.0113 N   0  0  0  0  0  0  0  0  0  0  0  0
   32.4792   34.7648   61.6886 C   0  0  0  0  0  0  0  0  0  0  0  0
   32.8384   33.9057   60.9074 O   0  0  0  0  0  0  0  0  0  0  0  0
   32.0098   35.9227   61.2072 N   0  0  0  0  0  0  0  0  0  0  0  0
   31.8927   38.8795   61.1410 H   0  0  0  0  0  0  0  0  0  0  0  0
   30.5492   37.9607   60.4203 H   0  0  0  0  0  0  0  0  0  0  0  0
   30.3588   38.7031   62.0267 H   0  0  0  0  0  0  0  0  0  0  0  0
   31.1715   40.0915   66.0511 H   0  0  0  0  0  0  0  0  0  0  0  0
   30.5554   38.4822   66.4969 H   0  0  0  0  0  0  0  0  0  0  0  0
   32.7413   37.9316   67.5301 H   0  0  0  0  0  0  0  0  0  0  0  0
   33.4433   40.8114   66.8014 H   0  0  0  0  0  0  0  0  0  0  0  0
   34.4457   39.7149   67.7819 H   0  0  0  0  0  0  0  0  0  0  0  0
   34.1489   39.3527   66.0647 H   0  0  0  0  0  0  0  0  0  0  0  0
   31.0254   38.9381   68.9570 H   0  0  0  0  0  0  0  0  0  0  0  0
   32.6183   39.5852   69.4176 H   0  0  0  0  0  0  0  0  0  0  0  0
   31.5072   40.5706   68.4365 H   0  0  0  0  0  0  0  0  0  0  0  0
   31.6991   36.0288   66.5741 H   0  0  0  0  0  0  0  0  0  0  0  0
   29.9323   35.0817   68.0027 H   0  0  0  0  0  0  0  0  0  0  0  0
   28.2892   33.5130   67.0535 H   0  0  0  0  0  0  0  0  0  0  0  0
   30.1795   33.8459   63.2405 H   0  0  0  0  0  0  0  0  0  0  0  0
   32.9186   33.6784   63.3385 H   0  0  0  0  0  0  0  0  0  0  0  0
   31.9725   36.0366   60.2446 H   0  0  0  0  0  0  0  0  0  0  0  0
  1  2  1  0  0  0  0
  1 24  1  0  0  0  0
  1 25  1  0  0  0  0
  1 26  1  0  0  0  0
  2 23  1  0  0  0  0
  2  3  2  0  0  0  0
  3  4  1  0  0  0  0
  3 11  1  0  0  0  0
  4  5  2  0  0  0  0
  4  6  1  0  0  0  0
  6  7  1  0  0  0  0
  7  8  1  0  0  0  0
  7 27  1  0  0  0  0
  7 28  1  0  0  0  0
  8  9  1  0  0  0  0
  8 10  1  0  0  0  0
  8 29  1  0  0  0  0
  9 30  1  0  0  0  0
  9 31  1  0  0  0  0
  9 32  1  0  0  0  0
 10 33  1  0  0  0  0
 10 34  1  0  0  0  0
 10 35  1  0  0  0  0
 11 12  1  1  0  0  0
 11 13  1  0  0  0  0
 11 20  1  0  0  0  0
 13 19  2  0  0  0  0
 13 14  1  0  0  0  0
 14 15  2  0  0  0  0
 14 36  1  0  0  0  0
 15 16  1  0  0  0  0
 15 37  1  0  0  0  0
 16 17  2  0  0  0  0
 16 38  1  0  0  0  0
 17 18  1  0  0  0  0
 17 19  1  0  0  0  0
 19 39  1  0  0  0  0
 20 21  1  0  0  0  0
 20 40  1  0  0  0  0
 21 22  2  0  0  0  0
 21 23  1  0  0  0  0
 23 41  1  0  0  0  0
M  END
$$$$
