ZINC000000039487      none
 OpenBabel11202420153D

 15 16  0  0  0  0  0  0  0  0999 V2000
   33.2420   40.7006   58.8352 N   0  0  0  0  0  0  0  0  0  0  0  0
   33.2739   39.5329   58.0763 C   0  0  0  0  0  0  0  0  0  0  0  0
   32.9147   38.3348   58.6253 C   0  0  0  0  0  0  0  0  0  0  0  0
   32.3696   38.2782   60.4352 Br  0  0  0  0  0  0  0  0  0  0  0  0
   32.9389   37.1498   57.8849 C   0  0  0  0  0  0  0  0  0  0  0  0
   33.3164   37.1072   56.5828 C   0  0  0  0  0  0  0  0  0  0  0  0
   33.3202   35.4600   55.6541 Br  0  0  0  0  0  0  0  0  0  0  0  0
   33.7057   38.2875   55.9221 C   0  0  0  0  0  0  0  0  0  0  0  0
   34.1180   38.6624   54.7361 N   0  0  0  0  0  0  0  0  0  0  0  0
   34.3131   39.8616   54.7444 O   0  0  0  0  0  0  0  0  0  0  0  0
   34.0972   40.4345   55.7940 N   0  0  0  0  0  0  0  0  0  0  0  0
   33.6918   39.5642   56.6804 C   0  0  0  0  0  0  0  0  0  0  0  0
   32.9625   40.6682   59.7634 H   0  0  0  0  0  0  0  0  0  0  0  0
   33.4992   41.5460   58.4352 H   0  0  0  0  0  0  0  0  0  0  0  0
   32.6445   36.2304   58.3692 H   0  0  0  0  0  0  0  0  0  0  0  0
  1  2  1  0  0  0  0
  1 13  1  0  0  0  0
  1 14  1  0  0  0  0
  2 12  1  0  0  0  0
  2  3  2  0  0  0  0
  3  4  1  0  0  0  0
  3  5  1  0  0  0  0
  5  6  2  0  0  0  0
  5 15  1  0  0  0  0
  6  7  1  0  0  0  0
  6  8  1  0  0  0  0
  8 12  1  0  0  0  0
  8  9  2  0  0  0  0
  9 10  1  0  0  0  0
 10 11  1  0  0  0  0
 11 12  2  0  0  0  0
M  END
$$$$
