ZINC000000033863      none
 OpenBabel11202420153D

 35 35  0  0  1  0  0  0  0  0999 V2000
   32.2889   36.1756   67.6145 C   0  0  0  0  0  0  0  0  0  0  0  0
   31.7135   36.7907   66.3648 C   0  0  0  0  0  0  0  0  0  0  0  0
   32.3798   37.5522   65.7044 O   0  0  0  0  0  0  0  0  0  0  0  0
   30.4609   36.4927   65.9855 O   0  0  0  0  0  0  0  0  0  0  0  0
   29.9725   37.1221   64.7716 C   0  0  1  0  0  0  0  0  0  0  0  0
   28.9501   36.7972   64.5788 H   0  0  0  0  0  0  0  0  0  0  0  0
   30.0036   38.6440   64.9347 C   0  0  2  0  0  0  0  0  0  0  0  0
   31.0192   38.9640   65.1675 H   0  0  0  0  0  0  0  0  0  0  0  0
   29.1013   39.0390   66.0286 C   0  0  0  0  0  0  0  0  0  0  0  0
   28.4049   39.3437   66.8728 N   0  0  0  0  0  0  0  0  0  0  0  0
   29.5766   39.2609   63.7185 O   0  0  0  0  0  0  0  0  0  0  0  0
   30.4033   38.9629   62.5915 C   0  0  0  0  0  0  0  0  0  0  0  0
   30.3883   37.4538   62.3343 C   0  0  1  0  0  0  0  0  0  0  0  0
   29.3742   37.1357   62.0922 H   0  0  0  0  0  0  0  0  0  0  0  0
   31.2724   37.1418   61.2256 O   0  0  0  0  0  0  0  0  0  0  0  0
   30.9559   36.0747   60.4754 C   0  0  0  0  0  0  0  0  0  0  0  0
   31.8267   35.6895   59.3073 C   0  0  0  0  0  0  0  0  0  0  0  0
   29.9726   35.4228   60.7365 O   0  0  0  0  0  0  0  0  0  0  0  0
   30.8669   36.7244   63.5933 C   0  0  2  0  0  0  0  0  0  0  0  0
   31.8982   37.0048   63.8074 H   0  0  0  0  0  0  0  0  0  0  0  0
   30.7871   35.2898   63.3834 O   0  0  0  0  0  0  0  0  0  0  0  0
   31.8730   34.6873   62.8739 C   0  0  0  0  0  0  0  0  0  0  0  0
   31.8642   33.2004   62.6284 C   0  0  0  0  0  0  0  0  0  0  0  0
   32.8574   35.3371   62.6118 O   0  0  0  0  0  0  0  0  0  0  0  0
   31.5468   35.5217   68.0725 H   0  0  0  0  0  0  0  0  0  0  0  0
   33.1757   35.5957   67.3590 H   0  0  0  0  0  0  0  0  0  0  0  0
   32.5603   36.9644   68.3160 H   0  0  0  0  0  0  0  0  0  0  0  0
   30.0230   39.4851   61.7136 H   0  0  0  0  0  0  0  0  0  0  0  0
   31.4241   39.2871   62.7937 H   0  0  0  0  0  0  0  0  0  0  0  0
   32.5984   34.9966   59.6425 H   0  0  0  0  0  0  0  0  0  0  0  0
   31.2165   35.2112   58.5413 H   0  0  0  0  0  0  0  0  0  0  0  0
   32.2952   36.5826   58.8935 H   0  0  0  0  0  0  0  0  0  0  0  0
   31.5044   33.0009   61.6191 H   0  0  0  0  0  0  0  0  0  0  0  0
   32.8752   32.8081   62.7379 H   0  0  0  0  0  0  0  0  0  0  0  0
   31.2066   32.7169   63.3509 H   0  0  0  0  0  0  0  0  0  0  0  0
  1  2  1  0  0  0  0
  1 25  1  0  0  0  0
  1 26  1  0  0  0  0
  1 27  1  0  0  0  0
  2  3  2  0  0  0  0
  2  4  1  0  0  0  0
  4  5  1  0  0  0  0
  5  6  1  6  0  0  0
  5 19  1  0  0  0  0
  5  7  1  0  0  0  0
  7  8  1  1  0  0  0
  7  9  1  0  0  0  0
  7 11  1  0  0  0  0
  9 10  3  0  0  0  0
 11 12  1  0  0  0  0
 12 13  1  0  0  0  0
 12 28  1  0  0  0  0
 12 29  1  0  0  0  0
 13 14  1  6  0  0  0
 13 15  1  0  0  0  0
 13 19  1  0  0  0  0
 15 16  1  0  0  0  0
 16 17  1  0  0  0  0
 16 18  2  0  0  0  0
 17 30  1  0  0  0  0
 17 31  1  0  0  0  0
 17 32  1  0  0  0  0
 19 20  1  1  0  0  0
 19 21  1  0  0  0  0
 21 22  1  0  0  0  0
 22 23  1  0  0  0  0
 22 24  2  0  0  0  0
 23 33  1  0  0  0  0
 23 34  1  0  0  0  0
 23 35  1  0  0  0  0
M  END
$$$$
