ZINC000000006371      none
 OpenBabel11202420153D

 21 22  0  0  0  0  0  0  0  0999 V2000
   33.7253   37.1723   55.2755 C   0  0  0  0  0  0  0  0  0  0  0  0
   33.3176   36.5958   56.5592 N   0  0  0  0  0  0  0  0  0  0  0  0
   32.9060   37.2692   57.6677 C   0  0  0  0  0  0  0  0  0  0  0  0
   32.6384   36.3817   58.5880 N   0  0  0  0  0  0  0  0  0  0  0  0
   32.8531   35.1982   58.1349 N   0  0  0  0  0  0  0  0  0  0  0  0
   33.2726   35.2687   56.8912 C   0  0  0  0  0  0  0  0  0  0  0  0
   33.6281   34.1301   56.0162 C   0  0  0  0  0  0  0  0  0  0  0  0
   32.9439   33.9280   54.8169 C   0  0  0  0  0  0  0  0  0  0  0  0
   33.2794   32.8650   54.0041 C   0  0  0  0  0  0  0  0  0  0  0  0
   34.2927   31.9992   54.3748 C   0  0  0  0  0  0  0  0  0  0  0  0
   34.9766   32.1934   55.5640 C   0  0  0  0  0  0  0  0  0  0  0  0
   35.9652   31.3442   55.9201 F   0  0  0  0  0  0  0  0  0  0  0  0
   34.6523   33.2578   56.3840 C   0  0  0  0  0  0  0  0  0  0  0  0
   34.8113   37.2598   55.2451 H   0  0  0  0  0  0  0  0  0  0  0  0
   33.3900   36.5262   54.4643 H   0  0  0  0  0  0  0  0  0  0  0  0
   33.2778   38.1597   55.1622 H   0  0  0  0  0  0  0  0  0  0  0  0
   32.8208   38.3410   57.7695 H   0  0  0  0  0  0  0  0  0  0  0  0
   32.1530   34.6031   54.5252 H   0  0  0  0  0  0  0  0  0  0  0  0
   32.7499   32.7084   53.0759 H   0  0  0  0  0  0  0  0  0  0  0  0
   34.5520   31.1690   53.7346 H   0  0  0  0  0  0  0  0  0  0  0  0
   35.1884   33.4116   57.3088 H   0  0  0  0  0  0  0  0  0  0  0  0
  1  2  1  0  0  0  0
  1 14  1  0  0  0  0
  1 15  1  0  0  0  0
  1 16  1  0  0  0  0
  2  6  1  0  0  0  0
  2  3  1  0  0  0  0
  3  4  2  0  0  0  0
  3 17  1  0  0  0  0
  4  5  1  0  0  0  0
  5  6  2  0  0  0  0
  6  7  1  0  0  0  0
  7 13  2  0  0  0  0
  7  8  1  0  0  0  0
  8  9  2  0  0  0  0
  8 18  1  0  0  0  0
  9 10  1  0  0  0  0
  9 19  1  0  0  0  0
 10 11  2  0  0  0  0
 10 20  1  0  0  0  0
 11 12  1  0  0  0  0
 11 13  1  0  0  0  0
 13 21  1  0  0  0  0
M  END
$$$$
