ZINC000000040260      none
 OpenBabel11202420153D

 25 26  0  0  0  0  0  0  0  0999 V2000
   28.8815   35.3645   64.5000 C   0  0  0  0  0  0  0  0  0  0  0  0
   30.2312   35.3869   63.8298 C   0  0  0  0  0  0  0  0  0  0  0  0
   31.1357   36.0369   64.3094 O   0  0  0  0  0  0  0  0  0  0  0  0
   30.4328   34.6844   62.6973 N   0  0  0  0  0  0  0  0  0  0  0  0
   31.7447   34.7060   62.0458 C   0  0  0  0  0  0  0  0  0  0  0  0
   32.7521   34.2431   62.9475 O   0  0  0  0  0  0  0  0  0  0  0  0
   32.0697   36.1032   61.5737 C   0  0  0  0  0  0  0  0  0  0  0  0
   32.1786   37.0897   62.2699 O   0  0  0  0  0  0  0  0  0  0  0  0
   32.2342   36.0446   60.1101 C   0  0  0  0  0  0  0  0  0  0  0  0
   32.5298   37.0495   59.1858 C   0  0  0  0  0  0  0  0  0  0  0  0
   32.6284   36.7471   57.8413 C   0  0  0  0  0  0  0  0  0  0  0  0
   32.4301   35.4512   57.3982 C   0  0  0  0  0  0  0  0  0  0  0  0
   32.1306   34.4436   58.2947 C   0  0  0  0  0  0  0  0  0  0  0  0
   32.0267   34.7273   59.6587 C   0  0  0  0  0  0  0  0  0  0  0  0
   31.7238   33.8486   60.8027 C   0  0  0  0  0  0  0  0  0  0  0  0
   31.4994   32.6582   60.7547 O   0  0  0  0  0  0  0  0  0  0  0  0
   28.2024   34.7319   63.9286 H   0  0  0  0  0  0  0  0  0  0  0  0
   28.9841   34.9678   65.5101 H   0  0  0  0  0  0  0  0  0  0  0  0
   28.4820   36.3776   64.5463 H   0  0  0  0  0  0  0  0  0  0  0  0
   29.7093   34.1645   62.3137 H   0  0  0  0  0  0  0  0  0  0  0  0
   32.8133   34.7554   63.7654 H   0  0  0  0  0  0  0  0  0  0  0  0
   32.6862   38.0635   59.5231 H   0  0  0  0  0  0  0  0  0  0  0  0
   32.8614   37.5271   57.1315 H   0  0  0  0  0  0  0  0  0  0  0  0
   32.5095   35.2260   56.3450 H   0  0  0  0  0  0  0  0  0  0  0  0
   31.9770   33.4349   57.9407 H   0  0  0  0  0  0  0  0  0  0  0  0
  1  2  1  0  0  0  0
  1 17  1  0  0  0  0
  1 18  1  0  0  0  0
  1 19  1  0  0  0  0
  2  3  2  0  0  0  0
  2  4  1  0  0  0  0
  4  5  1  0  0  0  0
  4 20  1  0  0  0  0
  5 15  1  0  0  0  0
  5  6  1  0  0  0  0
  5  7  1  0  0  0  0
  6 21  1  0  0  0  0
  7  8  2  0  0  0  0
  7  9  1  0  0  0  0
  9 14  2  0  0  0  0
  9 10  1  0  0  0  0
 10 11  2  0  0  0  0
 10 22  1  0  0  0  0
 11 12  1  0  0  0  0
 11 23  1  0  0  0  0
 12 13  2  0  0  0  0
 12 24  1  0  0  0  0
 13 14  1  0  0  0  0
 13 25  1  0  0  0  0
 14 15  1  0  0  0  0
 15 16  2  0  0  0  0
M  END
$$$$
