ZINC000000041464      none
 OpenBabel11202420153D

 36 37  0  0  0  0  0  0  0  0999 V2000
   33.7007   40.4071   58.7945 C   0  0  0  0  0  0  0  0  0  0  0  0
   33.1177   39.2675   59.4296 O   0  0  0  0  0  0  0  0  0  0  0  0
   32.9305   38.1648   58.6639 C   0  0  0  0  0  0  0  0  0  0  0  0
   33.2981   38.1677   57.3232 C   0  0  0  0  0  0  0  0  0  0  0  0
   33.0823   37.0157   56.5754 C   0  0  0  0  0  0  0  0  0  0  0  0
   33.4201   36.9753   55.2635 O   0  0  0  0  0  0  0  0  0  0  0  0
   33.1660   35.7546   54.5655 C   0  0  0  0  0  0  0  0  0  0  0  0
   32.5451   35.9527   57.1656 N   0  0  0  0  0  0  0  0  0  0  0  0
   32.2079   35.9860   58.4444 C   0  0  0  0  0  0  0  0  0  0  0  0
   31.6577   34.8851   59.0102 O   0  0  0  0  0  0  0  0  0  0  0  0
   31.3199   34.9446   60.3259 C   0  0  0  0  0  0  0  0  0  0  0  0
   32.2409   34.5758   61.2956 C   0  0  0  0  0  0  0  0  0  0  0  0
   31.9004   34.6415   62.6321 C   0  0  0  0  0  0  0  0  0  0  0  0
   30.6320   35.0660   63.0050 C   0  0  0  0  0  0  0  0  0  0  0  0
   30.2838   35.1269   64.3605 N   0  0  0  0  0  0  0  0  0  0  0  0
   29.7334   34.0546   64.9638 C   0  0  0  0  0  0  0  0  0  0  0  0
   29.3586   34.1202   66.4220 C   0  0  0  0  0  0  0  0  0  0  0  0
   29.5396   33.0369   64.3330 O   0  0  0  0  0  0  0  0  0  0  0  0
   29.7086   35.4295   62.0337 C   0  0  0  0  0  0  0  0  0  0  0  0
   30.0523   35.3686   60.6978 C   0  0  0  0  0  0  0  0  0  0  0  0
   32.3935   37.0664   59.1850 N   0  0  0  0  0  0  0  0  0  0  0  0
   33.0650   40.7280   57.9693 H   0  0  0  0  0  0  0  0  0  0  0  0
   33.7946   41.2175   59.5173 H   0  0  0  0  0  0  0  0  0  0  0  0
   34.6873   40.1448   58.4124 H   0  0  0  0  0  0  0  0  0  0  0  0
   33.7368   39.0454   56.8720 H   0  0  0  0  0  0  0  0  0  0  0  0
   32.0997   35.5313   54.6003 H   0  0  0  0  0  0  0  0  0  0  0  0
   33.4819   35.8571   53.5273 H   0  0  0  0  0  0  0  0  0  0  0  0
   33.7225   34.9441   55.0363 H   0  0  0  0  0  0  0  0  0  0  0  0
   33.2260   34.2416   61.0052 H   0  0  0  0  0  0  0  0  0  0  0  0
   32.6190   34.3588   63.3871 H   0  0  0  0  0  0  0  0  0  0  0  0
   30.4387   35.9408   64.8650 H   0  0  0  0  0  0  0  0  0  0  0  0
   28.3317   34.4729   66.5177 H   0  0  0  0  0  0  0  0  0  0  0  0
   29.4446   33.1278   66.8643 H   0  0  0  0  0  0  0  0  0  0  0  0
   30.0285   34.8077   66.9387 H   0  0  0  0  0  0  0  0  0  0  0  0
   28.7219   35.7593   62.3230 H   0  0  0  0  0  0  0  0  0  0  0  0
   29.3341   35.6510   59.9421 H   0  0  0  0  0  0  0  0  0  0  0  0
  1  2  1  0  0  0  0
  1 22  1  0  0  0  0
  1 23  1  0  0  0  0
  1 24  1  0  0  0  0
  2  3  1  0  0  0  0
  3 21  2  0  0  0  0
  3  4  1  0  0  0  0
  4  5  2  0  0  0  0
  4 25  1  0  0  0  0
  5  6  1  0  0  0  0
  5  8  1  0  0  0  0
  6  7  1  0  0  0  0
  7 26  1  0  0  0  0
  7 27  1  0  0  0  0
  7 28  1  0  0  0  0
  8  9  2  0  0  0  0
  9 10  1  0  0  0  0
  9 21  1  0  0  0  0
 10 11  1  0  0  0  0
 11 20  2  0  0  0  0
 11 12  1  0  0  0  0
 12 13  2  0  0  0  0
 12 29  1  0  0  0  0
 13 14  1  0  0  0  0
 13 30  1  0  0  0  0
 14 15  1  0  0  0  0
 14 19  2  0  0  0  0
 15 16  1  0  0  0  0
 15 31  1  0  0  0  0
 16 17  1  0  0  0  0
 16 18  2  0  0  0  0
 17 32  1  0  0  0  0
 17 33  1  0  0  0  0
 17 34  1  0  0  0  0
 19 20  1  0  0  0  0
 19 35  1  0  0  0  0
 20 36  1  0  0  0  0
M  END
$$$$
