ZINC000000047732      none
 OpenBabel11202420153D

 36 39  0  0  0  0  0  0  0  0999 V2000
   29.5729   36.8600   61.3652 O   0  0  0  0  0  0  0  0  0  0  0  0
   30.5088   37.2261   62.0480 C   0  0  0  0  0  0  0  0  0  0  0  0
   31.7483   36.7604   61.7978 O   0  0  0  0  0  0  0  0  0  0  0  0
   32.0366   36.4345   60.5110 C   0  0  0  0  0  0  0  0  0  0  0  0
   31.8000   35.1413   60.0558 C   0  0  0  0  0  0  0  0  0  0  0  0
   32.0902   34.8046   58.7524 C   0  0  0  0  0  0  0  0  0  0  0  0
   32.6216   35.7616   57.8888 C   0  0  0  0  0  0  0  0  0  0  0  0
   32.8621   37.0662   58.3438 C   0  0  0  0  0  0  0  0  0  0  0  0
   32.5645   37.3911   59.6608 C   0  0  0  0  0  0  0  0  0  0  0  0
   33.3776   38.0087   57.5229 O   0  0  0  0  0  0  0  0  0  0  0  0
   33.6891   37.7667   56.2399 C   0  0  0  0  0  0  0  0  0  0  0  0
   34.1506   38.6560   55.5510 O   0  0  0  0  0  0  0  0  0  0  0  0
   33.4753   36.4315   55.6640 C   0  0  0  0  0  0  0  0  0  0  0  0
   33.7879   36.1458   54.3366 C   0  0  0  0  0  0  0  0  0  0  0  0
   33.5689   34.8767   53.8436 C   0  0  0  0  0  0  0  0  0  0  0  0
   33.0413   33.8839   54.6559 C   0  0  0  0  0  0  0  0  0  0  0  0
   32.7253   34.1474   55.9734 C   0  0  0  0  0  0  0  0  0  0  0  0
   32.9387   35.4201   56.4887 C   0  0  0  0  0  0  0  0  0  0  0  0
   30.2880   38.1810   63.1514 C   0  0  0  0  0  0  0  0  0  0  0  0
   31.3614   38.5995   63.9419 C   0  0  0  0  0  0  0  0  0  0  0  0
   31.1500   39.4946   64.9682 C   0  0  0  0  0  0  0  0  0  0  0  0
   29.8734   39.9722   65.2233 C   0  0  0  0  0  0  0  0  0  0  0  0
   29.6711   40.8453   66.2342 F   0  0  0  0  0  0  0  0  0  0  0  0
   28.8036   39.5567   64.4451 C   0  0  0  0  0  0  0  0  0  0  0  0
   29.0040   38.6655   63.4130 C   0  0  0  0  0  0  0  0  0  0  0  0
   31.3880   34.4009   60.7253 H   0  0  0  0  0  0  0  0  0  0  0  0
   31.9059   33.8007   58.3994 H   0  0  0  0  0  0  0  0  0  0  0  0
   32.7449   38.3926   60.0226 H   0  0  0  0  0  0  0  0  0  0  0  0
   34.1993   36.9134   53.6979 H   0  0  0  0  0  0  0  0  0  0  0  0
   33.8103   34.6537   52.8148 H   0  0  0  0  0  0  0  0  0  0  0  0
   32.8765   32.8952   54.2538 H   0  0  0  0  0  0  0  0  0  0  0  0
   32.3106   33.3706   56.5986 H   0  0  0  0  0  0  0  0  0  0  0  0
   32.3553   38.2250   63.7466 H   0  0  0  0  0  0  0  0  0  0  0  0
   31.9796   39.8217   65.5775 H   0  0  0  0  0  0  0  0  0  0  0  0
   27.8114   39.9318   64.6481 H   0  0  0  0  0  0  0  0  0  0  0  0
   28.1699   38.3420   62.8080 H   0  0  0  0  0  0  0  0  0  0  0  0
  1  2  2  0  0  0  0
  2  3  1  0  0  0  0
  2 19  1  0  0  0  0
  3  4  1  0  0  0  0
  4  9  2  0  0  0  0
  4  5  1  0  0  0  0
  5  6  2  0  0  0  0
  5 26  1  0  0  0  0
  6  7  1  0  0  0  0
  6 27  1  0  0  0  0
  7 18  1  0  0  0  0
  7  8  2  0  0  0  0
  8  9  1  0  0  0  0
  8 10  1  0  0  0  0
  9 28  1  0  0  0  0
 10 11  1  0  0  0  0
 11 12  2  0  0  0  0
 11 13  1  0  0  0  0
 13 18  2  0  0  0  0
 13 14  1  0  0  0  0
 14 15  2  0  0  0  0
 14 29  1  0  0  0  0
 15 16  1  0  0  0  0
 15 30  1  0  0  0  0
 16 17  2  0  0  0  0
 16 31  1  0  0  0  0
 17 18  1  0  0  0  0
 17 32  1  0  0  0  0
 19 25  2  0  0  0  0
 19 20  1  0  0  0  0
 20 21  2  0  0  0  0
 20 33  1  0  0  0  0
 21 22  1  0  0  0  0
 21 34  1  0  0  0  0
 22 23  1  0  0  0  0
 22 24  2  0  0  0  0
 24 25  1  0  0  0  0
 24 35  1  0  0  0  0
 25 36  1  0  0  0  0
M  END
$$$$
