ZINC000000030027      none
 OpenBabel11202420163D

 26 26  0  0  0  0  0  0  0  0999 V2000
   34.2016   33.1214   54.9311 C   0  0  0  0  0  0  0  0  0  0  0  0
   32.7903   33.7064   55.0139 C   0  0  0  0  0  0  0  0  0  0  0  0
   32.8657   35.1049   55.4437 N   0  0  0  0  0  0  0  0  0  0  0  0
   33.0286   35.4011   56.7485 C   0  0  0  0  0  0  0  0  0  0  0  0
   33.1130   34.5078   57.5685 O   0  0  0  0  0  0  0  0  0  0  0  0
   33.1048   36.8125   57.1823 C   0  0  0  0  0  0  0  0  0  0  0  0
   33.5670   37.7920   56.3015 C   0  0  0  0  0  0  0  0  0  0  0  0
   33.6371   39.1081   56.7096 C   0  0  0  0  0  0  0  0  0  0  0  0
   33.2455   39.4620   57.9879 C   0  0  0  0  0  0  0  0  0  0  0  0
   32.7900   38.4941   58.8724 C   0  0  0  0  0  0  0  0  0  0  0  0
   32.4117   38.8467   60.1294 O   0  0  0  0  0  0  0  0  0  0  0  0
   31.9532   37.7993   60.9867 C   0  0  0  0  0  0  0  0  0  0  0  0
   32.7155   37.1700   58.4731 C   0  0  0  0  0  0  0  0  0  0  0  0
   34.1455   32.0809   54.6113 H   0  0  0  0  0  0  0  0  0  0  0  0
   34.7895   33.6915   54.2118 H   0  0  0  0  0  0  0  0  0  0  0  0
   34.6753   33.1752   55.9114 H   0  0  0  0  0  0  0  0  0  0  0  0
   32.2023   33.1364   55.7333 H   0  0  0  0  0  0  0  0  0  0  0  0
   32.3166   33.6526   54.0336 H   0  0  0  0  0  0  0  0  0  0  0  0
   32.7983   35.8178   54.7894 H   0  0  0  0  0  0  0  0  0  0  0  0
   33.8697   37.5198   55.3012 H   0  0  0  0  0  0  0  0  0  0  0  0
   33.9946   39.8651   56.0272 H   0  0  0  0  0  0  0  0  0  0  0  0
   33.2985   40.4944   58.3005 H   0  0  0  0  0  0  0  0  0  0  0  0
   32.7456   37.0619   61.1152 H   0  0  0  0  0  0  0  0  0  0  0  0
   31.6836   38.2159   61.9572 H   0  0  0  0  0  0  0  0  0  0  0  0
   31.0807   37.3212   60.5415 H   0  0  0  0  0  0  0  0  0  0  0  0
   32.3574   36.4166   59.1591 H   0  0  0  0  0  0  0  0  0  0  0  0
  1  2  1  0  0  0  0
  1 14  1  0  0  0  0
  1 15  1  0  0  0  0
  1 16  1  0  0  0  0
  2  3  1  0  0  0  0
  2 17  1  0  0  0  0
  2 18  1  0  0  0  0
  3  4  1  0  0  0  0
  3 19  1  0  0  0  0
  4  5  2  0  0  0  0
  4  6  1  0  0  0  0
  6 13  2  0  0  0  0
  6  7  1  0  0  0  0
  7  8  2  0  0  0  0
  7 20  1  0  0  0  0
  8  9  1  0  0  0  0
  8 21  1  0  0  0  0
  9 10  2  0  0  0  0
  9 22  1  0  0  0  0
 10 11  1  0  0  0  0
 10 13  1  0  0  0  0
 11 12  1  0  0  0  0
 12 23  1  0  0  0  0
 12 24  1  0  0  0  0
 12 25  1  0  0  0  0
 13 26  1  0  0  0  0
M  END
$$$$
