ZINC000000056300      none
 OpenBabel11202420153D

 32 33  0  0  0  0  0  0  0  0999 V2000
   29.9025   37.9291   64.9052 C   0  0  0  0  0  0  0  0  0  0  0  0
   30.5132   36.6917   64.2186 C   0  0  0  0  0  0  0  0  0  0  0  0
   31.9169   36.4844   64.7952 C   0  0  0  0  0  0  0  0  0  0  0  0
   29.6391   35.4793   64.5732 C   0  0  0  0  0  0  0  0  0  0  0  0
   30.1134   34.3213   63.7374 C   0  0  0  0  0  0  0  0  0  0  0  0
   30.0541   33.0483   63.9343 N   0  0  0  0  0  0  0  0  0  0  0  0
   30.5662   32.4352   63.0197 O   0  0  0  0  0  0  0  0  0  0  0  0
   31.0388   33.2676   62.0672 C   0  0  0  0  0  0  0  0  0  0  0  0
   31.6736   32.8909   60.8976 N   0  0  0  0  0  0  0  0  0  0  0  0
   30.7595   34.5173   62.4951 C   0  0  0  0  0  0  0  0  0  0  0  0
   30.9963   35.8687   61.8924 C   0  0  0  0  0  0  0  0  0  0  0  0
   32.4817   36.0340   61.5455 C   0  0  0  0  0  0  0  0  0  0  0  0
   30.1881   35.9663   60.5830 C   0  0  0  0  0  0  0  0  0  0  0  0
   30.5613   36.9338   62.7892 N   0  0  0  0  0  0  0  0  0  0  0  0
   31.1981   38.2115   62.4699 O   0  0  0  0  0  0  0  0  0  0  0  0
   29.8881   37.7758   65.9842 H   0  0  0  0  0  0  0  0  0  0  0  0
   30.5032   38.8079   64.6710 H   0  0  0  0  0  0  0  0  0  0  0  0
   28.8844   38.0786   64.5458 H   0  0  0  0  0  0  0  0  0  0  0  0
   32.3543   35.5808   64.3708 H   0  0  0  0  0  0  0  0  0  0  0  0
   32.5421   37.3419   64.5466 H   0  0  0  0  0  0  0  0  0  0  0  0
   31.8534   36.3831   65.8787 H   0  0  0  0  0  0  0  0  0  0  0  0
   29.7481   35.2429   65.6321 H   0  0  0  0  0  0  0  0  0  0  0  0
   28.5948   35.6981   64.3499 H   0  0  0  0  0  0  0  0  0  0  0  0
   31.9764   33.5664   60.2709 H   0  0  0  0  0  0  0  0  0  0  0  0
   31.8159   31.9511   60.7041 H   0  0  0  0  0  0  0  0  0  0  0  0
   32.7756   35.2655   60.8307 H   0  0  0  0  0  0  0  0  0  0  0  0
   32.6451   37.0189   61.1079 H   0  0  0  0  0  0  0  0  0  0  0  0
   33.0794   35.9352   62.4516 H   0  0  0  0  0  0  0  0  0  0  0  0
   29.1279   35.8355   60.7998 H   0  0  0  0  0  0  0  0  0  0  0  0
   30.3482   36.9444   60.1294 H   0  0  0  0  0  0  0  0  0  0  0  0
   30.5168   35.1882   59.8942 H   0  0  0  0  0  0  0  0  0  0  0  0
   31.2452   38.4017   61.5229 H   0  0  0  0  0  0  0  0  0  0  0  0
  1  2  1  0  0  0  0
  1 16  1  0  0  0  0
  1 17  1  0  0  0  0
  1 18  1  0  0  0  0
  2 14  1  0  0  0  0
  2  3  1  0  0  0  0
  2  4  1  0  0  0  0
  3 19  1  0  0  0  0
  3 20  1  0  0  0  0
  3 21  1  0  0  0  0
  4  5  1  0  0  0  0
  4 22  1  0  0  0  0
  4 23  1  0  0  0  0
  5 10  1  0  0  0  0
  5  6  2  0  0  0  0
  6  7  1  0  0  0  0
  7  8  1  0  0  0  0
  8  9  1  0  0  0  0
  8 10  2  0  0  0  0
  9 24  1  0  0  0  0
  9 25  1  0  0  0  0
 10 11  1  0  0  0  0
 11 12  1  0  0  0  0
 11 13  1  0  0  0  0
 11 14  1  0  0  0  0
 12 26  1  0  0  0  0
 12 27  1  0  0  0  0
 12 28  1  0  0  0  0
 13 29  1  0  0  0  0
 13 30  1  0  0  0  0
 13 31  1  0  0  0  0
 14 15  1  0  0  0  0
 15 32  1  0  0  0  0
M  END
$$$$
