ZINC000000004293      none
 OpenBabel11202420153D

 33 35  0  0  0  0  0  0  0  0999 V2000
   33.8525   37.1011   54.6695 C   0  0  0  0  0  0  0  0  0  0  0  0
   33.8516   38.3714   55.3240 O   0  0  0  0  0  0  0  0  0  0  0  0
   33.4620   38.3946   56.6266 C   0  0  0  0  0  0  0  0  0  0  0  0
   33.4379   39.5963   57.3247 C   0  0  0  0  0  0  0  0  0  0  0  0
   33.0509   39.6329   58.6480 C   0  0  0  0  0  0  0  0  0  0  0  0
   32.6781   38.4640   59.3028 C   0  0  0  0  0  0  0  0  0  0  0  0
   32.6921   37.2557   58.5943 C   0  0  0  0  0  0  0  0  0  0  0  0
   33.0895   37.2218   57.2593 C   0  0  0  0  0  0  0  0  0  0  0  0
   32.2671   36.0132   59.2808 C   0  0  0  0  0  0  0  0  0  0  0  0
   32.1309   34.9558   58.6924 O   0  0  0  0  0  0  0  0  0  0  0  0
   32.0178   36.1565   60.7350 C   0  0  0  0  0  0  0  0  0  0  0  0
   32.2606   35.1635   61.6170 C   0  0  0  0  0  0  0  0  0  0  0  0
   31.8373   35.3050   63.0189 C   0  0  0  0  0  0  0  0  0  0  0  0
   32.6967   35.8750   63.9702 C   0  0  0  0  0  0  0  0  0  0  0  0
   32.2496   35.9850   65.2741 C   0  0  0  0  0  0  0  0  0  0  0  0
   30.9834   35.5292   65.5974 C   0  0  0  0  0  0  0  0  0  0  0  0
   30.1936   35.0014   64.6817 N   0  0  0  0  0  0  0  0  0  0  0  0
   30.5710   34.8740   63.4269 C   0  0  0  0  0  0  0  0  0  0  0  0
   31.4735   37.5115   61.1555 C   0  0  0  0  0  0  0  0  0  0  0  0
   32.3154   38.5247   60.6058 O   0  0  0  0  0  0  0  0  0  0  0  0
   34.5305   36.4248   55.1900 H   0  0  0  0  0  0  0  0  0  0  0  0
   32.8449   36.6856   54.6813 H   0  0  0  0  0  0  0  0  0  0  0  0
   34.1828   37.2240   53.6381 H   0  0  0  0  0  0  0  0  0  0  0  0
   33.7253   40.5102   56.8261 H   0  0  0  0  0  0  0  0  0  0  0  0
   33.0373   40.5737   59.1782 H   0  0  0  0  0  0  0  0  0  0  0  0
   33.1069   36.2854   56.7215 H   0  0  0  0  0  0  0  0  0  0  0  0
   32.7655   34.2653   61.2934 H   0  0  0  0  0  0  0  0  0  0  0  0
   33.6820   36.2187   63.6916 H   0  0  0  0  0  0  0  0  0  0  0  0
   32.8837   36.4182   66.0335 H   0  0  0  0  0  0  0  0  0  0  0  0
   30.6342   35.6105   66.6161 H   0  0  0  0  0  0  0  0  0  0  0  0
   29.8975   34.4331   62.7070 H   0  0  0  0  0  0  0  0  0  0  0  0
   30.4582   37.6327   60.7776 H   0  0  0  0  0  0  0  0  0  0  0  0
   31.4716   37.5850   62.2431 H   0  0  0  0  0  0  0  0  0  0  0  0
  1  2  1  0  0  0  0
  1 21  1  0  0  0  0
  1 22  1  0  0  0  0
  1 23  1  0  0  0  0
  2  3  1  0  0  0  0
  3  8  2  0  0  0  0
  3  4  1  0  0  0  0
  4  5  2  0  0  0  0
  4 24  1  0  0  0  0
  5  6  1  0  0  0  0
  5 25  1  0  0  0  0
  6 20  1  0  0  0  0
  6  7  2  0  0  0  0
  7  8  1  0  0  0  0
  7  9  1  0  0  0  0
  8 26  1  0  0  0  0
  9 10  2  0  0  0  0
  9 11  1  0  0  0  0
 11 12  2  0  0  0  0
 11 19  1  0  0  0  0
 12 13  1  0  0  0  0
 12 27  1  0  0  0  0
 13 18  2  0  0  0  0
 13 14  1  0  0  0  0
 14 15  2  0  0  0  0
 14 28  1  0  0  0  0
 15 16  1  0  0  0  0
 15 29  1  0  0  0  0
 16 17  2  0  0  0  0
 16 30  1  0  0  0  0
 17 18  1  0  0  0  0
 18 31  1  0  0  0  0
 19 20  1  0  0  0  0
 19 32  1  0  0  0  0
 19 33  1  0  0  0  0
M  END
$$$$
