ZINC000000053208      none
 OpenBabel11202420153D

 37 40  0  0  0  0  0  0  0  0999 V2000
   34.9267   36.4960   54.1185 C   0  0  0  0  0  0  0  0  0  0  0  0
   34.8203   37.7882   54.7194 O   0  0  0  0  0  0  0  0  0  0  0  0
   34.1363   37.8693   55.8908 C   0  0  0  0  0  0  0  0  0  0  0  0
   33.9996   39.1078   56.5257 C   0  0  0  0  0  0  0  0  0  0  0  0
   33.3209   39.2209   57.6986 C   0  0  0  0  0  0  0  0  0  0  0  0
   32.7468   38.0792   58.2848 C   0  0  0  0  0  0  0  0  0  0  0  0
   32.0384   38.1602   59.4957 C   0  0  0  0  0  0  0  0  0  0  0  0
   31.4955   37.0349   60.0353 C   0  0  0  0  0  0  0  0  0  0  0  0
   30.6081   37.1417   61.5538 S   0  0  0  0  0  0  0  0  0  0  0  0
   30.1621   38.4863   61.6641 O   0  0  0  0  0  0  0  0  0  0  0  0
   29.7285   36.0261   61.5839 O   0  0  0  0  0  0  0  0  0  0  0  0
   31.7001   36.9094   62.7770 N   0  0  0  0  0  0  0  0  0  0  0  0
   32.8682   36.1345   62.7235 N   0  0  0  0  0  0  0  0  0  0  0  0
   33.4685   36.1864   63.8602 N   0  0  0  0  0  0  0  0  0  0  0  0
   32.7788   36.9637   64.7186 C   0  0  0  0  0  0  0  0  0  0  0  0
   32.9907   37.3421   66.0512 C   0  0  0  0  0  0  0  0  0  0  0  0
   32.0951   38.1612   66.6739 C   0  0  0  0  0  0  0  0  0  0  0  0
   30.9718   38.6263   66.0023 C   0  0  0  0  0  0  0  0  0  0  0  0
   30.7421   38.2714   64.7026 C   0  0  0  0  0  0  0  0  0  0  0  0
   31.6434   37.4430   64.0426 C   0  0  0  0  0  0  0  0  0  0  0  0
   31.6305   35.7994   59.4047 C   0  0  0  0  0  0  0  0  0  0  0  0
   32.3053   35.6832   58.2285 C   0  0  0  0  0  0  0  0  0  0  0  0
   32.8844   36.8227   57.6434 C   0  0  0  0  0  0  0  0  0  0  0  0
   33.5917   36.7402   56.4327 C   0  0  0  0  0  0  0  0  0  0  0  0
   35.4953   36.5720   53.1917 H   0  0  0  0  0  0  0  0  0  0  0  0
   35.4366   35.8179   54.8028 H   0  0  0  0  0  0  0  0  0  0  0  0
   33.9295   36.1124   53.9026 H   0  0  0  0  0  0  0  0  0  0  0  0
   34.4389   39.9869   56.0779 H   0  0  0  0  0  0  0  0  0  0  0  0
   33.2234   40.1837   58.1780 H   0  0  0  0  0  0  0  0  0  0  0  0
   31.9250   39.1110   59.9955 H   0  0  0  0  0  0  0  0  0  0  0  0
   33.8606   36.9865   66.5834 H   0  0  0  0  0  0  0  0  0  0  0  0
   32.2611   38.4510   67.7010 H   0  0  0  0  0  0  0  0  0  0  0  0
   30.2735   39.2738   66.5117 H   0  0  0  0  0  0  0  0  0  0  0  0
   29.8657   38.6371   64.1881 H   0  0  0  0  0  0  0  0  0  0  0  0
   31.1896   34.9217   59.8539 H   0  0  0  0  0  0  0  0  0  0  0  0
   32.3983   34.7200   57.7489 H   0  0  0  0  0  0  0  0  0  0  0  0
   33.7040   35.7893   55.9331 H   0  0  0  0  0  0  0  0  0  0  0  0
  1  2  1  0  0  0  0
  1 25  1  0  0  0  0
  1 26  1  0  0  0  0
  1 27  1  0  0  0  0
  2  3  1  0  0  0  0
  3 24  2  0  0  0  0
  3  4  1  0  0  0  0
  4  5  2  0  0  0  0
  4 28  1  0  0  0  0
  5  6  1  0  0  0  0
  5 29  1  0  0  0  0
  6 23  2  0  0  0  0
  6  7  1  0  0  0  0
  7  8  2  0  0  0  0
  7 30  1  0  0  0  0
  8  9  1  0  0  0  0
  8 21  1  0  0  0  0
  9 10  2  0  0  0  0
  9 11  2  0  0  0  0
  9 12  1  0  0  0  0
 12 20  1  0  0  0  0
 12 13  1  0  0  0  0
 13 14  2  0  0  0  0
 14 15  1  0  0  0  0
 15 20  2  0  0  0  0
 15 16  1  0  0  0  0
 16 17  2  0  0  0  0
 16 31  1  0  0  0  0
 17 18  1  0  0  0  0
 17 32  1  0  0  0  0
 18 19  2  0  0  0  0
 18 33  1  0  0  0  0
 19 20  1  0  0  0  0
 19 34  1  0  0  0  0
 21 22  2  0  0  0  0
 21 35  1  0  0  0  0
 22 23  1  0  0  0  0
 22 36  1  0  0  0  0
 23 24  1  0  0  0  0
 24 37  1  0  0  0  0
M  END
$$$$
