ZINC000000033593      none
 OpenBabel11202420153D

 38 40  0  0  1  0  0  0  0  0999 V2000
   32.3248   33.9892   57.3263 C   0  0  0  0  0  0  0  0  0  0  0  0
   32.2285   34.6656   58.6696 C   0  0  0  0  0  0  0  0  0  0  0  0
   32.3586   33.9229   59.8283 C   0  0  0  0  0  0  0  0  0  0  0  0
   32.2705   34.5434   61.0605 C   0  0  0  0  0  0  0  0  0  0  0  0
   32.0530   35.9065   61.1339 C   0  0  0  0  0  0  0  0  0  0  0  0
   31.9571   36.5829   62.4771 C   0  0  0  0  0  0  0  0  0  0  0  0
   30.5014   36.5777   62.9480 C   0  0  2  0  0  0  0  0  0  0  0  0
   30.0255   35.6266   62.7089 H   0  0  0  0  0  0  0  0  0  0  0  0
   29.7232   37.7512   62.3187 C   0  0  0  0  0  0  0  0  0  0  0  0
   29.2850   38.5680   63.5146 C   0  0  0  0  0  0  0  0  0  0  0  0
   28.6382   39.5922   63.4665 O   0  0  0  0  0  0  0  0  0  0  0  0
   29.7253   37.9809   64.6342 N   0  0  0  0  0  0  0  0  0  0  0  0
   29.4672   38.5257   65.9694 C   0  0  0  0  0  0  0  0  0  0  0  0
   30.5796   39.4681   66.3511 C   0  0  0  0  0  0  0  0  0  0  0  0
   31.7133   39.1288   66.9906 C   0  0  0  0  0  0  0  0  0  0  0  0
   32.4675   40.3148   67.1441 C   0  0  0  0  0  0  0  0  0  0  0  0
   31.7496   41.3078   66.5893 C   0  0  0  0  0  0  0  0  0  0  0  0
   30.6095   40.7881   66.1055 O   0  0  0  0  0  0  0  0  0  0  0  0
   30.4211   36.8549   64.4333 C   0  0  0  0  0  0  0  0  0  0  0  0
   30.9097   36.1667   65.3035 O   0  0  0  0  0  0  0  0  0  0  0  0
   31.9177   36.6482   59.9753 C   0  0  0  0  0  0  0  0  0  0  0  0
   32.0095   36.0285   58.7431 C   0  0  0  0  0  0  0  0  0  0  0  0
   31.3334   33.6630   57.0118 H   0  0  0  0  0  0  0  0  0  0  0  0
   32.7257   34.6904   56.5944 H   0  0  0  0  0  0  0  0  0  0  0  0
   32.9849   33.1250   57.4011 H   0  0  0  0  0  0  0  0  0  0  0  0
   32.5293   32.8580   59.7709 H   0  0  0  0  0  0  0  0  0  0  0  0
   32.3722   33.9631   61.9656 H   0  0  0  0  0  0  0  0  0  0  0  0
   32.3078   37.6114   62.3919 H   0  0  0  0  0  0  0  0  0  0  0  0
   32.5743   36.0473   63.1985 H   0  0  0  0  0  0  0  0  0  0  0  0
   30.3732   38.3386   61.6701 H   0  0  0  0  0  0  0  0  0  0  0  0
   28.8578   37.3851   61.7662 H   0  0  0  0  0  0  0  0  0  0  0  0
   28.5198   39.0648   65.9650 H   0  0  0  0  0  0  0  0  0  0  0  0
   29.4179   37.7105   66.6912 H   0  0  0  0  0  0  0  0  0  0  0  0
   31.9933   38.1403   67.3234 H   0  0  0  0  0  0  0  0  0  0  0  0
   33.4344   40.4060   67.6165 H   0  0  0  0  0  0  0  0  0  0  0  0
   32.0420   42.3461   66.5381 H   0  0  0  0  0  0  0  0  0  0  0  0
   31.7433   37.7125   60.0327 H   0  0  0  0  0  0  0  0  0  0  0  0
   31.9074   36.6085   57.8378 H   0  0  0  0  0  0  0  0  0  0  0  0
  1  2  1  0  0  0  0
  1 23  1  0  0  0  0
  1 24  1  0  0  0  0
  1 25  1  0  0  0  0
  2 22  2  0  0  0  0
  2  3  1  0  0  0  0
  3  4  2  0  0  0  0
  3 26  1  0  0  0  0
  4  5  1  0  0  0  0
  4 27  1  0  0  0  0
  5  6  1  0  0  0  0
  5 21  2  0  0  0  0
  6  7  1  0  0  0  0
  6 28  1  0  0  0  0
  6 29  1  0  0  0  0
  7  8  1  6  0  0  0
  7 19  1  0  0  0  0
  7  9  1  0  0  0  0
  9 10  1  0  0  0  0
  9 30  1  0  0  0  0
  9 31  1  0  0  0  0
 10 11  2  0  0  0  0
 10 12  1  0  0  0  0
 12 13  1  0  0  0  0
 12 19  1  0  0  0  0
 13 14  1  0  0  0  0
 13 32  1  0  0  0  0
 13 33  1  0  0  0  0
 14 18  1  0  0  0  0
 14 15  2  0  0  0  0
 15 16  1  0  0  0  0
 15 34  1  0  0  0  0
 16 17  2  0  0  0  0
 16 35  1  0  0  0  0
 17 18  1  0  0  0  0
 17 36  1  0  0  0  0
 19 20  2  0  0  0  0
 21 22  1  0  0  0  0
 21 37  1  0  0  0  0
 22 38  1  0  0  0  0
M  END
$$$$
