ZINC000000040190      none
 OpenBabel11202420153D

 32 33  0  0  0  0  0  0  0  0999 V2000
   31.1652   41.1819   67.7698 C   0  0  0  0  0  0  0  0  0  0  0  0
   32.5811   40.8382   67.3853 C   0  0  0  0  0  0  0  0  0  0  0  0
   33.6245   41.5846   67.5876 N   0  0  0  0  0  0  0  0  0  0  0  0
   34.7559   40.8992   67.0803 O   0  0  0  0  0  0  0  0  0  0  0  0
   34.3039   39.6633   66.5548 N   0  0  0  0  0  0  0  0  0  0  0  0
   33.0105   39.6102   66.7221 C   0  0  0  0  0  0  0  0  0  0  0  0
   32.1806   38.5569   66.3382 N   0  0  0  0  0  0  0  0  0  0  0  0
   32.7048   37.4707   65.7364 C   0  0  0  0  0  0  0  0  0  0  0  0
   33.8980   37.4093   65.5287 O   0  0  0  0  0  0  0  0  0  0  0  0
   31.8081   36.3328   65.3217 C   0  0  0  0  0  0  0  0  0  0  0  0
   31.3321   36.5591   63.9505 N   0  0  0  0  0  0  0  0  0  0  0  0
   32.4481   36.5400   62.9961 C   0  0  0  0  0  0  0  0  0  0  0  0
   31.9025   36.6326   61.5693 C   0  0  0  0  0  0  0  0  0  0  0  0
   31.0993   37.9275   61.4184 C   0  0  0  0  0  0  0  0  0  0  0  0
   29.9731   37.9443   62.4556 C   0  0  0  0  0  0  0  0  0  0  0  0
   30.5747   37.8136   63.8567 C   0  0  0  0  0  0  0  0  0  0  0  0
   30.9643   40.8196   68.7779 H   0  0  0  0  0  0  0  0  0  0  0  0
   31.0328   42.2634   67.7393 H   0  0  0  0  0  0  0  0  0  0  0  0
   30.4744   40.7114   67.0702 H   0  0  0  0  0  0  0  0  0  0  0  0
   31.2262   38.6061   66.5042 H   0  0  0  0  0  0  0  0  0  0  0  0
   30.9550   36.2775   65.9980 H   0  0  0  0  0  0  0  0  0  0  0  0
   32.3657   35.3971   65.3630 H   0  0  0  0  0  0  0  0  0  0  0  0
   33.0085   35.6121   63.1112 H   0  0  0  0  0  0  0  0  0  0  0  0
   33.1057   37.3875   63.1894 H   0  0  0  0  0  0  0  0  0  0  0  0
   32.7318   36.6342   60.8621 H   0  0  0  0  0  0  0  0  0  0  0  0
   31.2557   35.7780   61.3709 H   0  0  0  0  0  0  0  0  0  0  0  0
   31.7549   38.7835   61.5785 H   0  0  0  0  0  0  0  0  0  0  0  0
   30.6727   37.9768   60.4165 H   0  0  0  0  0  0  0  0  0  0  0  0
   29.4240   38.8829   62.3814 H   0  0  0  0  0  0  0  0  0  0  0  0
   29.2960   37.1104   62.2710 H   0  0  0  0  0  0  0  0  0  0  0  0
   31.2411   38.6552   64.0458 H   0  0  0  0  0  0  0  0  0  0  0  0
   29.7744   37.8109   64.5967 H   0  0  0  0  0  0  0  0  0  0  0  0
  1  2  1  0  0  0  0
  1 17  1  0  0  0  0
  1 18  1  0  0  0  0
  1 19  1  0  0  0  0
  2  6  1  0  0  0  0
  2  3  2  0  0  0  0
  3  4  1  0  0  0  0
  4  5  1  0  0  0  0
  5  6  2  0  0  0  0
  6  7  1  0  0  0  0
  7  8  1  0  0  0  0
  7 20  1  0  0  0  0
  8  9  2  0  0  0  0
  8 10  1  0  0  0  0
 10 11  1  0  0  0  0
 10 21  1  0  0  0  0
 10 22  1  0  0  0  0
 11 16  1  0  0  0  0
 11 12  1  0  0  0  0
 12 13  1  0  0  0  0
 12 23  1  0  0  0  0
 12 24  1  0  0  0  0
 13 14  1  0  0  0  0
 13 25  1  0  0  0  0
 13 26  1  0  0  0  0
 14 15  1  0  0  0  0
 14 27  1  0  0  0  0
 14 28  1  0  0  0  0
 15 16  1  0  0  0  0
 15 29  1  0  0  0  0
 15 30  1  0  0  0  0
 16 31  1  0  0  0  0
 16 32  1  0  0  0  0
M  END
$$$$
