ZINC000000033716      none
 OpenBabel11202420153D

 37 38  0  0  1  0  0  0  0  0999 V2000
   32.4369   33.0299   60.9967 C   0  0  0  0  0  0  0  0  0  0  0  0
   32.6242   34.4492   61.2396 O   0  0  0  0  0  0  0  0  0  0  0  0
   31.5359   35.1583   61.5780 C   0  0  0  0  0  0  0  0  0  0  0  0
   30.4623   34.6112   61.6682 O   0  0  0  0  0  0  0  0  0  0  0  0
   31.6529   36.6367   61.8452 C   0  0  1  0  0  0  0  0  0  0  0  0
   32.3431   36.8030   62.6723 H   0  0  0  0  0  0  0  0  0  0  0  0
   32.1707   37.3307   60.6116 C   0  0  0  0  0  0  0  0  0  0  0  0
   32.3379   38.5319   60.6167 O   0  0  0  0  0  0  0  0  0  0  0  0
   32.4480   36.6164   59.5029 N   0  0  0  0  0  0  0  0  0  0  0  0
   32.9274   37.2587   58.3612 C   0  0  0  0  0  0  0  0  0  0  0  0
   33.1700   38.6492   58.2036 C   0  0  0  0  0  0  0  0  0  0  0  0
   33.6238   38.7593   56.9342 C   0  0  0  0  0  0  0  0  0  0  0  0
   34.0401   40.0269   56.2335 C   0  0  0  0  0  0  0  0  0  0  0  0
   33.6257   37.5214   56.4191 O   0  0  0  0  0  0  0  0  0  0  0  0
   33.2381   36.7024   57.2198 N   0  0  0  0  0  0  0  0  0  0  0  0
   30.2774   37.1999   62.2077 C   0  0  0  0  0  0  0  0  0  0  0  0
   30.3940   38.6992   62.5519 C   0  0  0  0  0  0  0  0  0  0  0  0
   29.3863   38.9014   63.7117 C   0  0  0  0  0  0  0  0  0  0  0  0
   29.5430   37.5975   64.5328 C   0  0  0  0  0  0  0  0  0  0  0  0
   29.7362   36.4997   63.4665 C   0  0  0  0  0  0  0  0  0  0  0  0
   33.3927   32.5772   60.7328 H   0  0  0  0  0  0  0  0  0  0  0  0
   32.0466   32.5556   61.8972 H   0  0  0  0  0  0  0  0  0  0  0  0
   31.7309   32.8915   60.1779 H   0  0  0  0  0  0  0  0  0  0  0  0
   32.3144   35.6557   59.4989 H   0  0  0  0  0  0  0  0  0  0  0  0
   33.0269   39.4360   58.9295 H   0  0  0  0  0  0  0  0  0  0  0  0
   34.3534   39.7935   55.2159 H   0  0  0  0  0  0  0  0  0  0  0  0
   33.1988   40.7193   56.2048 H   0  0  0  0  0  0  0  0  0  0  0  0
   34.8693   40.4847   56.7730 H   0  0  0  0  0  0  0  0  0  0  0  0
   29.5862   37.0603   61.3765 H   0  0  0  0  0  0  0  0  0  0  0  0
   31.4058   38.9377   62.8799 H   0  0  0  0  0  0  0  0  0  0  0  0
   30.1162   39.3104   61.6932 H   0  0  0  0  0  0  0  0  0  0  0  0
   28.3707   38.9965   63.3278 H   0  0  0  0  0  0  0  0  0  0  0  0
   29.6536   39.7708   64.3124 H   0  0  0  0  0  0  0  0  0  0  0  0
   28.6445   37.4058   65.1195 H   0  0  0  0  0  0  0  0  0  0  0  0
   30.4164   37.6561   65.1826 H   0  0  0  0  0  0  0  0  0  0  0  0
   28.7819   36.0210   63.2462 H   0  0  0  0  0  0  0  0  0  0  0  0
   30.4532   35.7581   63.8186 H   0  0  0  0  0  0  0  0  0  0  0  0
  1  2  1  0  0  0  0
  1 21  1  0  0  0  0
  1 22  1  0  0  0  0
  1 23  1  0  0  0  0
  2  3  1  0  0  0  0
  3  4  2  0  0  0  0
  3  5  1  0  0  0  0
  5  6  1  1  0  0  0
  5  7  1  0  0  0  0
  5 16  1  0  0  0  0
  7  8  2  0  0  0  0
  7  9  1  0  0  0  0
  9 10  1  0  0  0  0
  9 24  1  0  0  0  0
 10 15  2  0  0  0  0
 10 11  1  0  0  0  0
 11 12  2  0  0  0  0
 11 25  1  0  0  0  0
 12 13  1  0  0  0  0
 12 14  1  0  0  0  0
 13 26  1  0  0  0  0
 13 27  1  0  0  0  0
 13 28  1  0  0  0  0
 14 15  1  0  0  0  0
 16 20  1  0  0  0  0
 16 17  1  0  0  0  0
 16 29  1  0  0  0  0
 17 18  1  0  0  0  0
 17 30  1  0  0  0  0
 17 31  1  0  0  0  0
 18 19  1  0  0  0  0
 18 32  1  0  0  0  0
 18 33  1  0  0  0  0
 19 20  1  0  0  0  0
 19 34  1  0  0  0  0
 19 35  1  0  0  0  0
 20 36  1  0  0  0  0
 20 37  1  0  0  0  0
M  END
$$$$
