ZINC000000003722      none
 OpenBabel11202420153D

 44 46  0  0  0  0  0  0  0  0999 V2000
   28.1973   37.0029   62.1143 C   0  0  0  0  0  0  0  0  0  0  0  0
   29.6827   37.1402   61.9006 C   0  0  0  0  0  0  0  0  0  0  0  0
   30.1931   37.3394   60.6291 C   0  0  0  0  0  0  0  0  0  0  0  0
   31.5672   37.4608   60.4791 C   0  0  0  0  0  0  0  0  0  0  0  0
   32.3786   37.3800   61.5943 C   0  0  0  0  0  0  0  0  0  0  0  0
   31.8627   37.1946   62.7938 N   0  0  0  0  0  0  0  0  0  0  0  0
   30.5582   37.0691   62.9766 C   0  0  0  0  0  0  0  0  0  0  0  0
   30.0557   36.8687   64.2661 N   0  0  0  0  0  0  0  0  0  0  0  0
   29.3227   35.7925   64.6978 C   0  0  0  0  0  0  0  0  0  0  0  0
   29.0431   36.0075   65.9970 C   0  0  0  0  0  0  0  0  0  0  0  0
   29.5920   37.1777   66.3562 N   0  0  0  0  0  0  0  0  0  0  0  0
   30.2041   37.7018   65.3298 C   0  0  0  0  0  0  0  0  0  0  0  0
   31.0711   39.2355   65.3222 S   0  0  2  0  0  0  0  0  0  0  0  0
   30.9084   39.6881   63.9851 O   0  0  0  0  0  0  0  0  0  0  0  0
   32.7939   38.7317   65.5846 C   0  0  0  0  0  0  0  0  0  0  0  0
   32.9105   38.0071   66.9008 C   0  0  0  0  0  0  0  0  0  0  0  0
   32.7498   36.6363   66.9520 C   0  0  0  0  0  0  0  0  0  0  0  0
   32.8510   35.9713   68.1600 C   0  0  0  0  0  0  0  0  0  0  0  0
   33.1186   36.6753   69.3200 C   0  0  0  0  0  0  0  0  0  0  0  0
   33.2860   38.0451   69.2752 C   0  0  0  0  0  0  0  0  0  0  0  0
   33.1849   38.7164   68.0629 C   0  0  0  0  0  0  0  0  0  0  0  0
   33.3532   40.1022   68.0141 N   0  0  0  0  0  0  0  0  0  0  0  0
   32.3614   40.7829   68.8572 C   0  0  0  0  0  0  0  0  0  0  0  0
   34.7196   40.4804   68.3988 C   0  0  0  0  0  0  0  0  0  0  0  0
   27.7801   37.9693   62.3971 H   0  0  0  0  0  0  0  0  0  0  0  0
   27.7277   36.6602   61.1923 H   0  0  0  0  0  0  0  0  0  0  0  0
   28.0098   36.2799   62.9081 H   0  0  0  0  0  0  0  0  0  0  0  0
   29.5367   37.3992   59.7735 H   0  0  0  0  0  0  0  0  0  0  0  0
   31.9978   37.6172   59.5010 H   0  0  0  0  0  0  0  0  0  0  0  0
   33.4488   37.4735   61.4829 H   0  0  0  0  0  0  0  0  0  0  0  0
   29.0237   34.9388   64.1077 H   0  0  0  0  0  0  0  0  0  0  0  0
   28.4752   35.3509   66.6393 H   0  0  0  0  0  0  0  0  0  0  0  0
   33.4327   39.6150   65.5982 H   0  0  0  0  0  0  0  0  0  0  0  0
   33.1061   38.0701   64.7766 H   0  0  0  0  0  0  0  0  0  0  0  0
   32.5408   36.0835   66.0479 H   0  0  0  0  0  0  0  0  0  0  0  0
   32.7213   34.8998   68.1976 H   0  0  0  0  0  0  0  0  0  0  0  0
   33.1970   36.1528   70.2621 H   0  0  0  0  0  0  0  0  0  0  0  0
   33.4949   38.5942   70.1815 H   0  0  0  0  0  0  0  0  0  0  0  0
   32.4697   41.8619   68.7463 H   0  0  0  0  0  0  0  0  0  0  0  0
   32.5200   40.5070   69.8997 H   0  0  0  0  0  0  0  0  0  0  0  0
   31.3586   40.4850   68.5510 H   0  0  0  0  0  0  0  0  0  0  0  0
   34.9184   40.1398   69.4149 H   0  0  0  0  0  0  0  0  0  0  0  0
   35.4309   40.0177   67.7146 H   0  0  0  0  0  0  0  0  0  0  0  0
   34.8232   41.5644   68.3520 H   0  0  0  0  0  0  0  0  0  0  0  0
  1  2  1  0  0  0  0
  1 25  1  0  0  0  0
  1 26  1  0  0  0  0
  1 27  1  0  0  0  0
  2  7  2  0  0  0  0
  2  3  1  0  0  0  0
  3  4  2  0  0  0  0
  3 28  1  0  0  0  0
  4  5  1  0  0  0  0
  4 29  1  0  0  0  0
  5  6  2  0  0  0  0
  5 30  1  0  0  0  0
  6  7  1  0  0  0  0
  7  8  1  0  0  0  0
  8 12  1  0  0  0  0
  8  9  1  0  0  0  0
  9 10  2  0  0  0  0
  9 31  1  0  0  0  0
 10 11  1  0  0  0  0
 10 32  1  0  0  0  0
 11 12  2  0  0  0  0
 12 13  1  0  0  0  0
 13 14  2  6  0  0  0
 13 15  1  0  0  0  0
 15 16  1  0  0  0  0
 15 33  1  0  0  0  0
 15 34  1  0  0  0  0
 16 21  2  0  0  0  0
 16 17  1  0  0  0  0
 17 18  2  0  0  0  0
 17 35  1  0  0  0  0
 18 19  1  0  0  0  0
 18 36  1  0  0  0  0
 19 20  2  0  0  0  0
 19 37  1  0  0  0  0
 20 21  1  0  0  0  0
 20 38  1  0  0  0  0
 21 22  1  0  0  0  0
 22 23  1  0  0  0  0
 22 24  1  0  0  0  0
 23 39  1  0  0  0  0
 23 40  1  0  0  0  0
 23 41  1  0  0  0  0
 24 42  1  0  0  0  0
 24 43  1  0  0  0  0
 24 44  1  0  0  0  0
M  END
$$$$
