ZINC000000033591      none
 OpenBabel11202420153D

 33 35  0  0  1  0  0  0  0  0999 V2000
   32.5216   34.4131   57.6287 O   0  0  0  0  0  0  0  0  0  0  0  0
   32.1539   35.0009   58.6229 C   0  0  0  0  0  0  0  0  0  0  0  0
   31.4868   34.3630   59.8219 C   0  0  0  0  0  0  0  0  0  0  0  0
   31.2396   35.5517   60.7730 C   0  0  1  0  0  0  0  0  0  0  0  0
   30.1733   35.6775   60.9606 H   0  0  0  0  0  0  0  0  0  0  0  0
   31.9966   35.3555   62.0880 C   0  0  0  0  0  0  0  0  0  0  0  0
   31.7940   36.5615   62.9689 C   0  0  0  0  0  0  0  0  0  0  0  0
   32.7763   36.9339   63.8674 C   0  0  0  0  0  0  0  0  0  0  0  0
   32.5921   38.0423   64.6727 C   0  0  0  0  0  0  0  0  0  0  0  0
   31.4219   38.7731   64.5856 C   0  0  0  0  0  0  0  0  0  0  0  0
   30.4377   38.3978   63.6904 C   0  0  0  0  0  0  0  0  0  0  0  0
   30.6235   37.2917   62.8824 C   0  0  0  0  0  0  0  0  0  0  0  0
   31.7930   36.7363   60.0114 C   0  0  0  0  0  0  0  0  0  0  0  0
   31.8001   37.8827   60.4049 O   0  0  0  0  0  0  0  0  0  0  0  0
   32.2740   36.3174   58.8343 N   0  0  0  0  0  0  0  0  0  0  0  0
   32.8519   37.1810   57.9053 C   0  0  0  0  0  0  0  0  0  0  0  0
   32.9297   38.4720   58.1852 N   0  0  0  0  0  0  0  0  0  0  0  0
   33.4762   39.3183   57.3281 C   0  0  0  0  0  0  0  0  0  0  0  0
   33.9608   38.8391   56.1210 C   0  0  0  0  0  0  0  0  0  0  0  0
   33.8583   37.4819   55.8588 C   0  0  0  0  0  0  0  0  0  0  0  0
   33.3046   36.6904   56.7625 N   0  0  0  0  0  0  0  0  0  0  0  0
   32.1491   33.6320   60.2856 H   0  0  0  0  0  0  0  0  0  0  0  0
   30.5433   33.8992   59.5342 H   0  0  0  0  0  0  0  0  0  0  0  0
   31.6196   34.4676   62.5953 H   0  0  0  0  0  0  0  0  0  0  0  0
   33.0594   35.2318   61.8804 H   0  0  0  0  0  0  0  0  0  0  0  0
   33.6889   36.3608   63.9381 H   0  0  0  0  0  0  0  0  0  0  0  0
   33.3609   38.3353   65.3723 H   0  0  0  0  0  0  0  0  0  0  0  0
   31.2766   39.6371   65.2172 H   0  0  0  0  0  0  0  0  0  0  0  0
   29.5233   38.9686   63.6226 H   0  0  0  0  0  0  0  0  0  0  0  0
   29.8543   36.9983   62.1833 H   0  0  0  0  0  0  0  0  0  0  0  0
   33.5401   40.3704   57.5638 H   0  0  0  0  0  0  0  0  0  0  0  0
   34.4086   39.5082   55.4011 H   0  0  0  0  0  0  0  0  0  0  0  0
   34.2262   37.0755   54.9281 H   0  0  0  0  0  0  0  0  0  0  0  0
  1  2  2  0  0  0  0
  2 15  1  0  0  0  0
  2  3  1  0  0  0  0
  3  4  1  0  0  0  0
  3 22  1  0  0  0  0
  3 23  1  0  0  0  0
  4  5  1  1  0  0  0
  4  6  1  0  0  0  0
  4 13  1  0  0  0  0
  6  7  1  0  0  0  0
  6 24  1  0  0  0  0
  6 25  1  0  0  0  0
  7 12  2  0  0  0  0
  7  8  1  0  0  0  0
  8  9  2  0  0  0  0
  8 26  1  0  0  0  0
  9 10  1  0  0  0  0
  9 27  1  0  0  0  0
 10 11  2  0  0  0  0
 10 28  1  0  0  0  0
 11 12  1  0  0  0  0
 11 29  1  0  0  0  0
 12 30  1  0  0  0  0
 13 14  2  0  0  0  0
 13 15  1  0  0  0  0
 15 16  1  0  0  0  0
 16 21  2  0  0  0  0
 16 17  1  0  0  0  0
 17 18  2  0  0  0  0
 18 19  1  0  0  0  0
 18 31  1  0  0  0  0
 19 20  2  0  0  0  0
 19 32  1  0  0  0  0
 20 21  1  0  0  0  0
 20 33  1  0  0  0  0
M  END
$$$$
