ZINC000000002493      none
 OpenBabel11202420153D

 29 31  0  0  1  0  0  0  0  0999 V2000
   33.0443   39.3809   57.8925 C   0  0  0  0  0  0  0  0  0  0  0  0
   32.7176   38.0908   58.5996 C   0  0  0  0  0  0  0  0  0  0  0  0
   32.3921   37.9532   59.8624 N   0  0  0  0  0  0  0  0  0  0  0  0
   32.1936   36.6353   60.0435 C   0  0  0  0  0  0  0  0  0  0  0  0
   31.8011   35.9614   61.3331 C   0  0  1  0  0  0  0  0  0  0  0  0
   32.2090   34.9508   61.3558 H   0  0  0  0  0  0  0  0  0  0  0  0
   32.3459   36.7671   62.5192 C   0  0  0  0  0  0  0  0  0  0  0  0
   31.2267   37.2157   63.3592 N   0  0  1  0  0  0  0  0  0  0  0  0
   30.3262   38.1018   62.6093 C   0  0  0  0  0  0  0  0  0  0  0  0
   29.7241   37.3335   61.4294 C   0  0  0  0  0  0  0  0  0  0  0  0
   30.2719   35.9009   61.4367 C   0  0  2  0  0  0  0  0  0  0  0  0
   29.8980   35.2439   62.7746 C   0  0  0  0  0  0  0  0  0  0  0  0
   30.4957   36.0697   63.9172 C   0  0  0  0  0  0  0  0  0  0  0  0
   32.3970   36.0506   58.9010 N   0  0  0  0  0  0  0  0  0  0  0  0
   32.6989   36.8691   58.0583 O   0  0  0  0  0  0  0  0  0  0  0  0
   33.2709   39.1745   56.8464 H   0  0  0  0  0  0  0  0  0  0  0  0
   32.1898   40.0548   57.9530 H   0  0  0  0  0  0  0  0  0  0  0  0
   33.9085   39.8463   58.3665 H   0  0  0  0  0  0  0  0  0  0  0  0
   32.8924   37.6342   62.1481 H   0  0  0  0  0  0  0  0  0  0  0  0
   33.0147   36.1404   63.1091 H   0  0  0  0  0  0  0  0  0  0  0  0
   30.8868   38.9593   62.2370 H   0  0  0  0  0  0  0  0  0  0  0  0
   29.5265   38.4467   63.2648 H   0  0  0  0  0  0  0  0  0  0  0  0
   28.6385   37.3100   61.5247 H   0  0  0  0  0  0  0  0  0  0  0  0
   29.9982   37.8247   60.4957 H   0  0  0  0  0  0  0  0  0  0  0  0
   29.8505   35.3342   60.6064 H   0  0  0  0  0  0  0  0  0  0  0  0
   30.2986   34.2308   62.8079 H   0  0  0  0  0  0  0  0  0  0  0  0
   28.8132   35.2112   62.8763 H   0  0  0  0  0  0  0  0  0  0  0  0
   31.1798   35.4487   64.4956 H   0  0  0  0  0  0  0  0  0  0  0  0
   29.6951   36.4290   64.5638 H   0  0  0  0  0  0  0  0  0  0  0  0
  1  2  1  0  0  0  0
  1 16  1  0  0  0  0
  1 17  1  0  0  0  0
  1 18  1  0  0  0  0
  2 15  1  0  0  0  0
  2  3  2  0  0  0  0
  3  4  1  0  0  0  0
  4  5  1  0  0  0  0
  4 14  2  0  0  0  0
  5  6  1  1  0  0  0
  5 11  1  0  0  0  0
  5  7  1  0  0  0  0
  7 19  1  0  0  0  0
  7 20  1  0  0  0  0
  8  7  1  6  0  0  0
  8 13  1  0  0  0  0
  8  9  1  0  0  0  0
  9 10  1  0  0  0  0
  9 21  1  0  0  0  0
  9 22  1  0  0  0  0
 10 11  1  0  0  0  0
 10 23  1  0  0  0  0
 10 24  1  0  0  0  0
 11 12  1  0  0  0  0
 11 25  1  6  0  0  0
 12 13  1  0  0  0  0
 12 26  1  0  0  0  0
 12 27  1  0  0  0  0
 13 28  1  0  0  0  0
 13 29  1  0  0  0  0
 14 15  1  0  0  0  0
M  END
$$$$
