ZINC000000027409      none
 OpenBabel11202420153D

 47 48  0  0  0  0  0  0  0  0999 V2000
   27.8710   32.3731   65.5669 C   0  0  0  0  0  0  0  0  0  0  0  0
   29.1096   32.7358   64.7452 C   0  0  0  0  0  0  0  0  0  0  0  0
   28.9332   34.0526   64.1594 O   0  0  0  0  0  0  0  0  0  0  0  0
   30.0413   34.7821   63.9552 C   0  0  0  0  0  0  0  0  0  0  0  0
   31.0924   34.2327   63.7249 O   0  0  0  0  0  0  0  0  0  0  0  0
   29.9742   36.2866   64.0130 C   0  0  0  0  0  0  0  0  0  0  0  0
   30.4084   36.8686   62.6662 C   0  0  0  0  0  0  0  0  0  0  0  0
   29.8858   38.3008   62.5372 C   0  0  0  0  0  0  0  0  0  0  0  0
   30.4324   39.1196   63.6220 N   0  0  0  0  0  0  0  0  0  0  0  0
   29.7673   39.2220   64.7898 C   0  0  0  0  0  0  0  0  0  0  0  0
   28.7166   38.6309   64.9446 O   0  0  0  0  0  0  0  0  0  0  0  0
   30.3158   40.0534   65.8825 C   0  0  0  0  0  0  0  0  0  0  0  0
   31.6917   40.2683   65.9767 C   0  0  0  0  0  0  0  0  0  0  0  0
   32.1966   41.0486   66.9962 C   0  0  0  0  0  0  0  0  0  0  0  0
   31.3432   41.6094   67.9298 C   0  0  0  0  0  0  0  0  0  0  0  0
   29.9787   41.3963   67.8450 C   0  0  0  0  0  0  0  0  0  0  0  0
   29.4605   40.6219   66.8276 C   0  0  0  0  0  0  0  0  0  0  0  0
   31.9360   36.8735   62.5815 C   0  0  0  0  0  0  0  0  0  0  0  0
   32.3701   37.4555   61.2347 C   0  0  0  0  0  0  0  0  0  0  0  0
   31.7993   36.6002   60.1018 C   0  0  0  0  0  0  0  0  0  0  0  0
   30.2716   36.5952   60.1865 C   0  0  0  0  0  0  0  0  0  0  0  0
   29.8376   36.0133   61.5333 C   0  0  0  0  0  0  0  0  0  0  0  0
   28.0036   31.3845   66.0066 H   0  0  0  0  0  0  0  0  0  0  0  0
   27.7331   33.1080   66.3599 H   0  0  0  0  0  0  0  0  0  0  0  0
   26.9941   32.3682   64.9196 H   0  0  0  0  0  0  0  0  0  0  0  0
   29.2475   32.0009   63.9520 H   0  0  0  0  0  0  0  0  0  0  0  0
   29.9865   32.7406   65.3925 H   0  0  0  0  0  0  0  0  0  0  0  0
   30.6386   36.6499   64.7970 H   0  0  0  0  0  0  0  0  0  0  0  0
   28.9522   36.5967   64.2303 H   0  0  0  0  0  0  0  0  0  0  0  0
   28.7975   38.2972   62.5976 H   0  0  0  0  0  0  0  0  0  0  0  0
   30.1951   38.7153   61.5777 H   0  0  0  0  0  0  0  0  0  0  0  0
   31.2709   39.5913   63.4986 H   0  0  0  0  0  0  0  0  0  0  0  0
   32.3592   39.8275   65.2512 H   0  0  0  0  0  0  0  0  0  0  0  0
   33.2607   41.2187   67.0681 H   0  0  0  0  0  0  0  0  0  0  0  0
   31.7438   42.2157   68.7286 H   0  0  0  0  0  0  0  0  0  0  0  0
   29.3180   41.8369   68.5768 H   0  0  0  0  0  0  0  0  0  0  0  0
   28.3953   40.4558   66.7628 H   0  0  0  0  0  0  0  0  0  0  0  0
   32.3427   37.4829   63.3886 H   0  0  0  0  0  0  0  0  0  0  0  0
   32.3083   35.8532   62.6734 H   0  0  0  0  0  0  0  0  0  0  0  0
   33.4585   37.4590   61.1743 H   0  0  0  0  0  0  0  0  0  0  0  0
   31.9978   38.4758   61.1428 H   0  0  0  0  0  0  0  0  0  0  0  0
   32.1716   35.5799   60.1937 H   0  0  0  0  0  0  0  0  0  0  0  0
   32.1087   37.0148   59.1423 H   0  0  0  0  0  0  0  0  0  0  0  0
   29.8650   35.9859   59.3794 H   0  0  0  0  0  0  0  0  0  0  0  0
   29.8993   37.6155   60.0946 H   0  0  0  0  0  0  0  0  0  0  0  0
   30.2098   34.9930   61.6253 H   0  0  0  0  0  0  0  0  0  0  0  0
   28.7492   36.0098   61.5937 H   0  0  0  0  0  0  0  0  0  0  0  0
  1  2  1  0  0  0  0
  1 23  1  0  0  0  0
  1 24  1  0  0  0  0
  1 25  1  0  0  0  0
  2  3  1  0  0  0  0
  2 26  1  0  0  0  0
  2 27  1  0  0  0  0
  3  4  1  0  0  0  0
  4  5  2  0  0  0  0
  4  6  1  0  0  0  0
  6  7  1  0  0  0  0
  6 28  1  0  0  0  0
  6 29  1  0  0  0  0
  7 22  1  0  0  0  0
  7  8  1  0  0  0  0
  7 18  1  0  0  0  0
  8  9  1  0  0  0  0
  8 30  1  0  0  0  0
  8 31  1  0  0  0  0
  9 10  1  0  0  0  0
  9 32  1  0  0  0  0
 10 11  2  0  0  0  0
 10 12  1  0  0  0  0
 12 17  2  0  0  0  0
 12 13  1  0  0  0  0
 13 14  2  0  0  0  0
 13 33  1  0  0  0  0
 14 15  1  0  0  0  0
 14 34  1  0  0  0  0
 15 16  2  0  0  0  0
 15 35  1  0  0  0  0
 16 17  1  0  0  0  0
 16 36  1  0  0  0  0
 17 37  1  0  0  0  0
 18 19  1  0  0  0  0
 18 38  1  0  0  0  0
 18 39  1  0  0  0  0
 19 20  1  0  0  0  0
 19 40  1  0  0  0  0
 19 41  1  0  0  0  0
 20 21  1  0  0  0  0
 20 42  1  0  0  0  0
 20 43  1  0  0  0  0
 21 22  1  0  0  0  0
 21 44  1  0  0  0  0
 21 45  1  0  0  0  0
 22 46  1  0  0  0  0
 22 47  1  0  0  0  0
M  END
$$$$
