ZINC000000038351      none
 OpenBabel11202420153D

 45 47  0  0  0  0  0  0  0  0999 V2000
   28.7319   38.4963   67.4790 C   0  0  0  0  0  0  0  0  0  0  0  0
   29.9767   38.8084   66.8506 O   0  0  0  0  0  0  0  0  0  0  0  0
   30.1528   38.3672   65.5763 C   0  0  0  0  0  0  0  0  0  0  0  0
   29.7758   39.1640   64.5072 C   0  0  0  0  0  0  0  0  0  0  0  0
   29.9610   38.7165   63.2125 C   0  0  0  0  0  0  0  0  0  0  0  0
   30.5119   37.4698   62.9809 C   0  0  0  0  0  0  0  0  0  0  0  0
   30.7060   36.9844   61.5675 C   0  0  0  0  0  0  0  0  0  0  0  0
   32.0870   37.4120   61.0665 C   0  0  0  0  0  0  0  0  0  0  0  0
   32.2756   36.9402   59.6924 N   0  0  0  0  0  0  0  0  0  0  0  0
   32.2244   35.6212   59.4198 C   0  0  0  0  0  0  0  0  0  0  0  0
   32.0219   34.8237   60.3137 O   0  0  0  0  0  0  0  0  0  0  0  0
   32.4152   35.1436   58.0290 C   0  0  0  0  0  0  0  0  0  0  0  0
   31.7752   33.9661   57.6151 C   0  0  0  0  0  0  0  0  0  0  0  0
   31.9427   33.5159   56.3374 C   0  0  0  0  0  0  0  0  0  0  0  0
   32.7638   34.2614   55.4707 C   0  0  0  0  0  0  0  0  0  0  0  0
   32.9796   33.8568   54.1434 C   0  0  0  0  0  0  0  0  0  0  0  0
   33.7805   34.6028   53.3339 C   0  0  0  0  0  0  0  0  0  0  0  0
   34.3900   35.7656   53.8037 C   0  0  0  0  0  0  0  0  0  0  0  0
   34.2036   36.1885   55.0826 C   0  0  0  0  0  0  0  0  0  0  0  0
   33.3827   35.4444   55.9519 C   0  0  0  0  0  0  0  0  0  0  0  0
   33.1824   35.8361   57.2098 N   0  0  0  0  0  0  0  0  0  0  0  0
   30.8903   36.6698   64.0430 C   0  0  0  0  0  0  0  0  0  0  0  0
   30.7125   37.1146   65.3432 C   0  0  0  0  0  0  0  0  0  0  0  0
   31.0838   36.3288   66.3891 O   0  0  0  0  0  0  0  0  0  0  0  0
   32.4219   36.4764   66.8683 C   0  0  0  0  0  0  0  0  0  0  0  0
   28.7221   38.9054   68.4892 H   0  0  0  0  0  0  0  0  0  0  0  0
   27.9150   38.9312   66.9030 H   0  0  0  0  0  0  0  0  0  0  0  0
   28.6088   37.4142   67.5241 H   0  0  0  0  0  0  0  0  0  0  0  0
   29.3415   40.1367   64.6855 H   0  0  0  0  0  0  0  0  0  0  0  0
   29.6711   39.3406   62.3800 H   0  0  0  0  0  0  0  0  0  0  0  0
   29.9373   37.4158   60.9264 H   0  0  0  0  0  0  0  0  0  0  0  0
   30.6313   35.8973   61.5432 H   0  0  0  0  0  0  0  0  0  0  0  0
   32.8557   36.9806   61.7075 H   0  0  0  0  0  0  0  0  0  0  0  0
   32.1617   38.4991   61.0907 H   0  0  0  0  0  0  0  0  0  0  0  0
   32.4373   37.5770   58.9788 H   0  0  0  0  0  0  0  0  0  0  0  0
   31.1519   33.4171   58.3053 H   0  0  0  0  0  0  0  0  0  0  0  0
   31.4578   32.6116   56.0004 H   0  0  0  0  0  0  0  0  0  0  0  0
   32.5139   32.9580   53.7672 H   0  0  0  0  0  0  0  0  0  0  0  0
   33.9454   34.2900   52.3134 H   0  0  0  0  0  0  0  0  0  0  0  0
   35.0169   36.3421   53.1396 H   0  0  0  0  0  0  0  0  0  0  0  0
   34.6836   37.0913   55.4305 H   0  0  0  0  0  0  0  0  0  0  0  0
   31.3241   35.6979   63.8592 H   0  0  0  0  0  0  0  0  0  0  0  0
   32.5769   37.5020   67.2033 H   0  0  0  0  0  0  0  0  0  0  0  0
   32.5868   35.7933   67.7016 H   0  0  0  0  0  0  0  0  0  0  0  0
   33.1228   36.2464   66.0660 H   0  0  0  0  0  0  0  0  0  0  0  0
  1  2  1  0  0  0  0
  1 26  1  0  0  0  0
  1 27  1  0  0  0  0
  1 28  1  0  0  0  0
  2  3  1  0  0  0  0
  3 23  2  0  0  0  0
  3  4  1  0  0  0  0
  4  5  2  0  0  0  0
  4 29  1  0  0  0  0
  5  6  1  0  0  0  0
  5 30  1  0  0  0  0
  6  7  1  0  0  0  0
  6 22  2  0  0  0  0
  7  8  1  0  0  0  0
  7 31  1  0  0  0  0
  7 32  1  0  0  0  0
  8  9  1  0  0  0  0
  8 33  1  0  0  0  0
  8 34  1  0  0  0  0
  9 10  1  0  0  0  0
  9 35  1  0  0  0  0
 10 11  2  0  0  0  0
 10 12  1  0  0  0  0
 12 21  2  0  0  0  0
 12 13  1  0  0  0  0
 13 14  2  0  0  0  0
 13 36  1  0  0  0  0
 14 15  1  0  0  0  0
 14 37  1  0  0  0  0
 15 20  2  0  0  0  0
 15 16  1  0  0  0  0
 16 17  2  0  0  0  0
 16 38  1  0  0  0  0
 17 18  1  0  0  0  0
 17 39  1  0  0  0  0
 18 19  2  0  0  0  0
 18 40  1  0  0  0  0
 19 20  1  0  0  0  0
 19 41  1  0  0  0  0
 20 21  1  0  0  0  0
 22 23  1  0  0  0  0
 22 42  1  0  0  0  0
 23 24  1  0  0  0  0
 24 25  1  0  0  0  0
 25 43  1  0  0  0  0
 25 44  1  0  0  0  0
 25 45  1  0  0  0  0
M  END
$$$$
