ZINC000000006228      none
 OpenBabel11202420153D

 31 32  0  0  1  0  0  0  0  0999 V2000
   33.0713   37.4604   56.8362 C   0  0  0  0  0  0  0  0  0  0  0  0
   32.6608   37.7177   58.2632 C   0  0  0  0  0  0  0  0  0  0  0  0
   32.2728   36.6976   59.0581 C   0  0  0  0  0  0  0  0  0  0  0  0
   31.9028   36.9490   60.3512 N   0  0  0  0  0  0  0  0  0  0  0  0
   31.4814   35.8423   61.2135 C   0  0  2  0  0  0  0  0  0  0  0  0
   31.5256   34.9040   60.6605 H   0  0  0  0  0  0  0  0  0  0  0  0
   30.1417   36.0706   61.6821 O   0  0  0  0  0  0  0  0  0  0  0  0
   30.0639   35.5269   63.0175 C   0  0  2  0  0  0  0  0  0  0  0  0
   29.9544   34.4430   62.9847 H   0  0  0  0  0  0  0  0  0  0  0  0
   28.9056   36.1607   63.7905 C   0  0  0  0  0  0  0  0  0  0  0  0
   27.6791   35.5347   63.4088 O   0  0  0  0  0  0  0  0  0  0  0  0
   31.4229   35.9228   63.6488 C   0  0  1  0  0  0  0  0  0  0  0  0
   31.4022   36.9540   64.0015 H   0  0  0  0  0  0  0  0  0  0  0  0
   31.7721   35.0303   64.7089 O   0  0  0  0  0  0  0  0  0  0  0  0
   32.3937   35.7671   62.4531 C   0  0  2  0  0  0  0  0  0  0  0  0
   32.9003   34.8028   62.4961 H   0  0  0  0  0  0  0  0  0  0  0  0
   33.3253   36.8108   62.4396 F   0  0  0  0  0  0  0  0  0  0  0  0
   31.9173   38.2038   60.8364 C   0  0  0  0  0  0  0  0  0  0  0  0
   31.5802   38.4053   61.9872 O   0  0  0  0  0  0  0  0  0  0  0  0
   32.3046   39.2384   60.0677 N   0  0  0  0  0  0  0  0  0  0  0  0
   32.3126   40.1364   60.4345 H   0  0  0  0  0  0  0  0  0  0  0  0
   32.6765   39.0325   58.7881 C   0  0  0  0  0  0  0  0  0  0  0  0
   33.0231   39.9686   58.0905 O   0  0  0  0  0  0  0  0  0  0  0  0
   32.1976   37.5316   56.1883 H   0  0  0  0  0  0  0  0  0  0  0  0
   33.8108   38.2010   56.5316 H   0  0  0  0  0  0  0  0  0  0  0  0
   33.5024   36.4624   56.7564 H   0  0  0  0  0  0  0  0  0  0  0  0
   32.2548   35.6879   58.6751 H   0  0  0  0  0  0  0  0  0  0  0  0
   29.0652   36.0248   64.8603 H   0  0  0  0  0  0  0  0  0  0  0  0
   28.8563   37.2254   63.5628 H   0  0  0  0  0  0  0  0  0  0  0  0
   27.6519   34.5840   63.5829 H   0  0  0  0  0  0  0  0  0  0  0  0
   31.1313   35.0095   65.4328 H   0  0  0  0  0  0  0  0  0  0  0  0
  1  2  1  0  0  0  0
  1 24  1  0  0  0  0
  1 25  1  0  0  0  0
  1 26  1  0  0  0  0
  2 22  1  0  0  0  0
  2  3  2  0  0  0  0
  3  4  1  0  0  0  0
  3 27  1  0  0  0  0
  4  5  1  0  0  0  0
  4 18  1  0  0  0  0
  5  6  1  6  0  0  0
  5 15  1  0  0  0  0
  5  7  1  0  0  0  0
  7  8  1  0  0  0  0
  8  9  1  6  0  0  0
  8 10  1  0  0  0  0
  8 12  1  0  0  0  0
 10 11  1  0  0  0  0
 10 28  1  0  0  0  0
 10 29  1  0  0  0  0
 11 30  1  0  0  0  0
 12 13  1  1  0  0  0
 12 14  1  0  0  0  0
 12 15  1  0  0  0  0
 14 31  1  0  0  0  0
 15 16  1  1  0  0  0
 15 17  1  0  0  0  0
 18 19  2  0  0  0  0
 18 20  1  0  0  0  0
 20 21  1  0  0  0  0
 20 22  1  0  0  0  0
 22 23  2  0  0  0  0
M  END
$$$$
