ZINC000000036984      none
 OpenBabel11202420153D

 36 38  0  0  0  0  0  0  0  0999 V2000
   29.3448   34.9435   64.2993 O   0  0  0  0  0  0  0  0  0  0  0  0
   30.0735   34.6467   65.2254 C   0  0  0  0  0  0  0  0  0  0  0  0
   29.8739   33.4960   65.8982 N   0  0  0  0  0  0  0  0  0  0  0  0
   28.8357   32.6498   65.5331 C   0  0  0  0  0  0  0  0  0  0  0  0
   28.6537   31.5231   66.2047 N   0  0  0  0  0  0  0  0  0  0  0  0
   27.6707   30.6972   65.8865 C   0  0  0  0  0  0  0  0  0  0  0  0
   26.8337   31.0182   64.8291 C   0  0  0  0  0  0  0  0  0  0  0  0
   27.0563   32.2026   64.1443 C   0  0  0  0  0  0  0  0  0  0  0  0
   28.0545   32.9861   64.5181 N   0  0  0  0  0  0  0  0  0  0  0  0
   31.1796   35.5482   65.6142 C   0  0  0  0  0  0  0  0  0  0  0  0
   31.2213   36.0938   66.8946 C   0  0  0  0  0  0  0  0  0  0  0  0
   32.2604   36.9308   67.2553 C   0  0  0  0  0  0  0  0  0  0  0  0
   33.2601   37.2369   66.3489 C   0  0  0  0  0  0  0  0  0  0  0  0
   33.2322   36.7091   65.0719 C   0  0  0  0  0  0  0  0  0  0  0  0
   32.1936   35.8637   64.6908 C   0  0  0  0  0  0  0  0  0  0  0  0
   32.1589   35.2968   63.3253 C   0  0  0  0  0  0  0  0  0  0  0  0
   32.1824   34.0921   63.1667 O   0  0  0  0  0  0  0  0  0  0  0  0
   32.1015   36.1161   62.2567 N   0  0  0  0  0  0  0  0  0  0  0  0
   32.0689   35.5839   60.9749 C   0  0  0  0  0  0  0  0  0  0  0  0
   32.0952   34.2690   60.8203 N   0  0  0  0  0  0  0  0  0  0  0  0
   32.0600   33.7291   59.6133 C   0  0  0  0  0  0  0  0  0  0  0  0
   32.0063   34.5578   58.5034 C   0  0  0  0  0  0  0  0  0  0  0  0
   31.9857   35.9296   58.7015 C   0  0  0  0  0  0  0  0  0  0  0  0
   32.0179   36.4036   59.9361 N   0  0  0  0  0  0  0  0  0  0  0  0
   30.4556   33.2591   66.6373 H   0  0  0  0  0  0  0  0  0  0  0  0
   27.5248   29.7817   66.4406 H   0  0  0  0  0  0  0  0  0  0  0  0
   26.0259   30.3601   64.5453 H   0  0  0  0  0  0  0  0  0  0  0  0
   26.4224   32.4827   63.3159 H   0  0  0  0  0  0  0  0  0  0  0  0
   30.4443   35.8597   67.6070 H   0  0  0  0  0  0  0  0  0  0  0  0
   32.2919   37.3488   68.2508 H   0  0  0  0  0  0  0  0  0  0  0  0
   34.0670   37.8926   66.6412 H   0  0  0  0  0  0  0  0  0  0  0  0
   34.0161   36.9522   64.3700 H   0  0  0  0  0  0  0  0  0  0  0  0
   32.0828   37.0777   62.3832 H   0  0  0  0  0  0  0  0  0  0  0  0
   32.0776   32.6559   59.4937 H   0  0  0  0  0  0  0  0  0  0  0  0
   31.9806   34.1438   57.5062 H   0  0  0  0  0  0  0  0  0  0  0  0
   31.9437   36.6031   57.8584 H   0  0  0  0  0  0  0  0  0  0  0  0
  1  2  2  0  0  0  0
  2  3  1  0  0  0  0
  2 10  1  0  0  0  0
  3  4  1  0  0  0  0
  3 25  1  0  0  0  0
  4  9  2  0  0  0  0
  4  5  1  0  0  0  0
  5  6  2  0  0  0  0
  6  7  1  0  0  0  0
  6 26  1  0  0  0  0
  7  8  2  0  0  0  0
  7 27  1  0  0  0  0
  8  9  1  0  0  0  0
  8 28  1  0  0  0  0
 10 15  2  0  0  0  0
 10 11  1  0  0  0  0
 11 12  2  0  0  0  0
 11 29  1  0  0  0  0
 12 13  1  0  0  0  0
 12 30  1  0  0  0  0
 13 14  2  0  0  0  0
 13 31  1  0  0  0  0
 14 15  1  0  0  0  0
 14 32  1  0  0  0  0
 15 16  1  0  0  0  0
 16 17  2  0  0  0  0
 16 18  1  0  0  0  0
 18 19  1  0  0  0  0
 18 33  1  0  0  0  0
 19 24  2  0  0  0  0
 19 20  1  0  0  0  0
 20 21  2  0  0  0  0
 21 22  1  0  0  0  0
 21 34  1  0  0  0  0
 22 23  2  0  0  0  0
 22 35  1  0  0  0  0
 23 24  1  0  0  0  0
 23 36  1  0  0  0  0
M  END
$$$$
