ZINC000000004949      none
 OpenBabel11202420153D

 29 29  0  0  0  0  0  0  0  0999 V2000
   31.3769   38.6977   67.0002 N   0  3  0  0  0  0  0  0  0  0  0  0
   31.2513   39.4369   67.6755 H   0  0  0  0  0  0  0  0  0  0  0  0
   31.0249   37.8318   67.3800 H   0  0  0  0  0  0  0  0  0  0  0  0
   32.3585   38.5981   66.7893 H   0  0  0  0  0  0  0  0  0  0  0  0
   30.6429   39.0275   65.7711 C   0  0  0  0  0  0  0  0  0  0  0  0
   30.8199   37.8991   64.7531 C   0  0  0  0  0  0  0  0  0  0  0  0
   29.8670   36.7514   65.0933 C   0  0  0  0  0  0  0  0  0  0  0  0
   30.1759   36.2346   66.4748 C   0  0  0  0  0  0  0  0  0  0  0  0
   30.5070   35.0716   66.6306 O   0  0  0  0  0  0  0  0  0  0  0  0
   30.0949   36.9796   67.4366 O   0  0  0  0  0  1  0  0  0  0  0  0
   32.2634   37.3938   64.7976 C   0  0  0  0  0  0  0  0  0  0  0  0
   32.4403   36.2654   63.7796 C   0  0  0  0  0  0  0  0  0  0  0  0
   32.1266   36.7900   62.3770 C   0  0  0  0  0  0  0  0  0  0  0  0
   30.6831   37.2953   62.3326 C   0  0  0  0  0  0  0  0  0  0  0  0
   30.5062   38.4237   63.3505 C   0  0  0  0  0  0  0  0  0  0  0  0
   31.0311   39.9569   65.3544 H   0  0  0  0  0  0  0  0  0  0  0  0
   29.5841   39.1467   66.0011 H   0  0  0  0  0  0  0  0  0  0  0  0
   28.8387   37.1114   65.0615 H   0  0  0  0  0  0  0  0  0  0  0  0
   29.9930   35.9474   64.3680 H   0  0  0  0  0  0  0  0  0  0  0  0
   32.4869   37.0200   65.7968 H   0  0  0  0  0  0  0  0  0  0  0  0
   32.9422   38.2114   64.5553 H   0  0  0  0  0  0  0  0  0  0  0  0
   31.7614   35.4477   64.0220 H   0  0  0  0  0  0  0  0  0  0  0  0
   33.4686   35.9054   63.8113 H   0  0  0  0  0  0  0  0  0  0  0  0
   32.8054   37.6076   62.1347 H   0  0  0  0  0  0  0  0  0  0  0  0
   32.2526   35.9861   61.6518 H   0  0  0  0  0  0  0  0  0  0  0  0
   30.4596   37.6691   61.3333 H   0  0  0  0  0  0  0  0  0  0  0  0
   30.0042   36.4776   62.5748 H   0  0  0  0  0  0  0  0  0  0  0  0
   31.1850   39.2414   63.1082 H   0  0  0  0  0  0  0  0  0  0  0  0
   29.4778   38.7837   63.3189 H   0  0  0  0  0  0  0  0  0  0  0  0
  1  2  1  0  0  0  0
  1  3  1  0  0  0  0
  1  4  1  0  0  0  0
  1  5  1  0  0  0  0
  5  6  1  0  0  0  0
  5 16  1  0  0  0  0
  5 17  1  0  0  0  0
  6 15  1  0  0  0  0
  6  7  1  0  0  0  0
  6 11  1  0  0  0  0
  7  8  1  0  0  0  0
  7 18  1  0  0  0  0
  7 19  1  0  0  0  0
  8  9  2  0  0  0  0
  8 10  1  0  0  0  0
 11 12  1  0  0  0  0
 11 20  1  0  0  0  0
 11 21  1  0  0  0  0
 12 13  1  0  0  0  0
 12 22  1  0  0  0  0
 12 23  1  0  0  0  0
 13 14  1  0  0  0  0
 13 24  1  0  0  0  0
 13 25  1  0  0  0  0
 14 15  1  0  0  0  0
 14 26  1  0  0  0  0
 14 27  1  0  0  0  0
 15 28  1  0  0  0  0
 15 29  1  0  0  0  0
M  CHG  1   1   1
M  END
$$$$
