ZINC000000040899      none
 OpenBabel11202420153D

 29 31  0  0  0  0  0  0  0  0999 V2000
   30.8319   32.9341   61.7801 F   0  0  0  0  0  0  0  0  0  0  0  0
   31.3036   33.9013   60.9632 C   0  0  0  0  0  0  0  0  0  0  0  0
   31.6938   33.5868   59.6726 C   0  0  0  0  0  0  0  0  0  0  0  0
   32.1717   34.5748   58.8342 C   0  0  0  0  0  0  0  0  0  0  0  0
   32.2701   35.8834   59.2891 C   0  0  0  0  0  0  0  0  0  0  0  0
   32.7579   36.8839   58.4430 N   0  0  0  0  0  0  0  0  0  0  0  0
   33.1657   36.5523   57.0755 C   0  0  0  0  0  0  0  0  0  0  0  0
   33.6361   37.7635   56.3988 N   0  0  0  0  0  0  0  0  0  0  0  0
   33.7009   39.0561   56.9400 N   0  0  0  0  0  0  0  0  0  0  0  0
   34.1646   39.8674   56.0559 N   0  0  0  0  0  0  0  0  0  0  0  0
   34.4321   39.2087   54.9107 C   0  0  0  0  0  0  0  0  0  0  0  0
   34.9398   39.6128   53.6686 C   0  0  0  0  0  0  0  0  0  0  0  0
   35.1048   38.6952   52.6728 C   0  0  0  0  0  0  0  0  0  0  0  0
   34.7750   37.3611   52.8745 C   0  0  0  0  0  0  0  0  0  0  0  0
   34.2739   36.9426   54.0751 C   0  0  0  0  0  0  0  0  0  0  0  0
   34.1004   37.8571   55.1084 C   0  0  0  0  0  0  0  0  0  0  0  0
   31.8781   36.1978   60.5835 C   0  0  0  0  0  0  0  0  0  0  0  0
   31.3957   35.2069   61.4180 C   0  0  0  0  0  0  0  0  0  0  0  0
   30.9056   35.5984   63.0367 Cl  0  0  0  0  0  0  0  0  0  0  0  0
   31.6206   32.5687   59.3199 H   0  0  0  0  0  0  0  0  0  0  0  0
   32.4721   34.3293   57.8263 H   0  0  0  0  0  0  0  0  0  0  0  0
   32.8263   37.7977   58.7613 H   0  0  0  0  0  0  0  0  0  0  0  0
   32.3153   36.1398   56.5327 H   0  0  0  0  0  0  0  0  0  0  0  0
   33.9697   35.8167   57.1044 H   0  0  0  0  0  0  0  0  0  0  0  0
   35.1999   40.6474   53.5004 H   0  0  0  0  0  0  0  0  0  0  0  0
   35.4959   39.0099   51.7165 H   0  0  0  0  0  0  0  0  0  0  0  0
   34.9125   36.6489   52.0742 H   0  0  0  0  0  0  0  0  0  0  0  0
   34.0157   35.9042   54.2218 H   0  0  0  0  0  0  0  0  0  0  0  0
   31.9502   37.2155   60.9380 H   0  0  0  0  0  0  0  0  0  0  0  0
  1  2  1  0  0  0  0
  2 18  2  0  0  0  0
  2  3  1  0  0  0  0
  3  4  2  0  0  0  0
  3 20  1  0  0  0  0
  4  5  1  0  0  0  0
  4 21  1  0  0  0  0
  5  6  1  0  0  0  0
  5 17  2  0  0  0  0
  6  7  1  0  0  0  0
  6 22  1  0  0  0  0
  7  8  1  0  0  0  0
  7 23  1  0  0  0  0
  7 24  1  0  0  0  0
  8 16  1  0  0  0  0
  8  9  1  0  0  0  0
  9 10  2  0  0  0  0
 10 11  1  0  0  0  0
 11 16  2  0  0  0  0
 11 12  1  0  0  0  0
 12 13  2  0  0  0  0
 12 25  1  0  0  0  0
 13 14  1  0  0  0  0
 13 26  1  0  0  0  0
 14 15  2  0  0  0  0
 14 27  1  0  0  0  0
 15 16  1  0  0  0  0
 15 28  1  0  0  0  0
 17 18  1  0  0  0  0
 17 29  1  0  0  0  0
 18 19  1  0  0  0  0
M  END
$$$$
