ZINC000000050565      none
 OpenBabel11202420153D

 15 15  0  0  0  0  0  0  0  0999 V2000
   31.1986   32.7860   59.0689 N   0  0  0  0  0  0  0  0  0  0  0  0
   31.6320   33.5176   58.3157 C   0  0  0  0  0  0  0  0  0  0  0  0
   32.1784   34.4398   57.3662 C   0  0  0  0  0  0  0  0  0  0  0  0
   32.1508   34.1291   55.9687 C   0  0  0  0  0  0  0  0  0  0  0  0
   32.1288   33.8825   54.8600 N   0  0  0  0  0  0  0  0  0  0  0  0
   32.7293   35.6369   57.7998 C   0  0  0  0  0  0  0  0  0  0  0  0
   33.2652   36.5416   56.8684 C   0  0  0  0  0  0  0  0  0  0  0  0
   33.9919   36.1090   55.3269 S   0  0  0  0  0  0  0  0  0  0  0  0
   34.3084   37.7451   54.9619 C   0  0  0  0  0  0  0  0  0  0  0  0
   35.0756   38.2959   53.5054 Cl  0  0  0  0  0  0  0  0  0  0  0  0
   33.8869   38.5502   55.9495 C   0  0  0  0  0  0  0  0  0  0  0  0
   33.3009   37.9107   57.0130 C   0  0  0  0  0  0  0  0  0  0  0  0
   32.6731   38.7425   58.4013 Cl  0  0  0  0  0  0  0  0  0  0  0  0
   32.7462   35.8733   58.8536 H   0  0  0  0  0  0  0  0  0  0  0  0
   33.9965   39.6239   55.9080 H   0  0  0  0  0  0  0  0  0  0  0  0
  1  2  3  0  0  0  0
  2  3  1  0  0  0  0
  3  4  1  0  0  0  0
  3  6  2  0  0  0  0
  4  5  3  0  0  0  0
  6  7  1  0  0  0  0
  6 14  1  0  0  0  0
  7 12  2  0  0  0  0
  7  8  1  0  0  0  0
  8  9  1  0  0  0  0
  9 10  1  0  0  0  0
  9 11  2  0  0  0  0
 11 12  1  0  0  0  0
 11 15  1  0  0  0  0
 12 13  1  0  0  0  0
M  END
$$$$
