ZINC000000001091      none
 OpenBabel11202420153D

 22 22  0  0  0  0  0  0  0  0999 V2000
   34.0368   32.4345   55.2771 C   0  0  0  0  0  0  0  0  0  0  0  0
   34.7369   33.3988   56.2368 C   0  0  0  0  0  0  0  0  0  0  0  0
   33.9324   34.5977   56.3907 O   0  0  0  0  0  0  0  0  0  0  0  0
   33.0201   34.5984   57.3803 C   0  0  0  0  0  0  0  0  0  0  0  0
   32.5020   33.5569   57.7296 O   0  0  0  0  0  0  0  0  0  0  0  0
   32.6814   35.7550   57.9837 N   0  0  0  0  0  0  0  0  0  0  0  0
   32.6879   37.0158   57.3972 C   0  0  0  0  0  0  0  0  0  0  0  0
   32.2933   37.8931   58.3128 C   0  0  0  0  0  0  0  0  0  0  0  0
   32.0279   37.1989   59.4835 N   0  0  0  0  0  0  0  0  0  0  0  0
   31.5607   37.7834   60.7430 C   0  0  0  0  0  0  0  0  0  0  0  0
   32.2773   35.8933   59.2619 C   0  0  0  0  0  0  0  0  0  0  0  0
   32.1039   34.6292   60.4033 S   0  0  0  0  0  0  0  0  0  0  0  0
   33.0598   32.1671   55.6794 H   0  0  0  0  0  0  0  0  0  0  0  0
   33.9112   32.9148   54.3068 H   0  0  0  0  0  0  0  0  0  0  0  0
   34.6408   31.5345   55.1616 H   0  0  0  0  0  0  0  0  0  0  0  0
   35.7140   33.6662   55.8344 H   0  0  0  0  0  0  0  0  0  0  0  0
   34.8626   32.9185   57.2071 H   0  0  0  0  0  0  0  0  0  0  0  0
   32.9652   37.2416   56.3781 H   0  0  0  0  0  0  0  0  0  0  0  0
   32.1922   38.9588   58.1693 H   0  0  0  0  0  0  0  0  0  0  0  0
   32.4189   38.0638   61.3538 H   0  0  0  0  0  0  0  0  0  0  0  0
   30.9602   38.6683   60.5322 H   0  0  0  0  0  0  0  0  0  0  0  0
   30.9556   37.0531   61.2802 H   0  0  0  0  0  0  0  0  0  0  0  0
  1  2  1  0  0  0  0
  1 13  1  0  0  0  0
  1 14  1  0  0  0  0
  1 15  1  0  0  0  0
  2  3  1  0  0  0  0
  2 16  1  0  0  0  0
  2 17  1  0  0  0  0
  3  4  1  0  0  0  0
  4  5  2  0  0  0  0
  4  6  1  0  0  0  0
  6 11  1  0  0  0  0
  6  7  1  0  0  0  0
  7  8  2  0  0  0  0
  7 18  1  0  0  0  0
  8  9  1  0  0  0  0
  8 19  1  0  0  0  0
  9 10  1  0  0  0  0
  9 11  1  0  0  0  0
 10 20  1  0  0  0  0
 10 21  1  0  0  0  0
 10 22  1  0  0  0  0
 11 12  2  0  0  0  0
M  END
$$$$
