ZINC000000005251      none
 OpenBabel11202420153D

 28 30  0  0  0  0  0  0  0  0999 V2000
   32.0231   34.4456   61.0743 C   0  0  0  0  0  0  0  0  0  0  0  0
   31.5997   35.6652   60.3818 N   0  0  0  0  0  0  0  0  0  0  0  0
   32.1552   35.9375   59.1355 C   0  0  0  0  0  0  0  0  0  0  0  0
   32.2096   34.8548   58.2477 C   0  0  0  0  0  0  0  0  0  0  0  0
   32.7459   34.9981   56.9891 C   0  0  0  0  0  0  0  0  0  0  0  0
   33.2375   36.2299   56.5956 C   0  0  0  0  0  0  0  0  0  0  0  0
   33.1833   37.2966   57.4633 C   0  0  0  0  0  0  0  0  0  0  0  0
   32.6406   37.1651   58.7431 C   0  0  0  0  0  0  0  0  0  0  0  0
   32.6509   38.4248   59.5696 C   0  0  0  0  0  0  0  0  0  0  0  0
   32.3348   38.2139   60.9689 N   0  0  0  0  0  0  0  0  0  0  0  0
   31.0797   37.7588   61.3636 C   0  0  0  0  0  0  0  0  0  0  0  0
   30.2073   38.5533   62.0879 C   0  0  0  0  0  0  0  0  0  0  0  0
   29.0071   38.0654   62.3817 N   0  0  0  0  0  0  0  0  0  0  0  0
   28.6455   36.8586   61.9967 C   0  0  0  0  0  0  0  0  0  0  0  0
   29.4549   36.0649   61.3173 N   0  0  0  0  0  0  0  0  0  0  0  0
   30.6734   36.4781   61.0037 C   0  0  0  0  0  0  0  0  0  0  0  0
   31.5049   34.3722   62.0305 H   0  0  0  0  0  0  0  0  0  0  0  0
   31.7804   33.5772   60.4620 H   0  0  0  0  0  0  0  0  0  0  0  0
   33.0990   34.4800   61.2459 H   0  0  0  0  0  0  0  0  0  0  0  0
   31.8257   33.8936   58.5563 H   0  0  0  0  0  0  0  0  0  0  0  0
   32.7834   34.1560   56.3140 H   0  0  0  0  0  0  0  0  0  0  0  0
   33.6625   36.3539   55.6105 H   0  0  0  0  0  0  0  0  0  0  0  0
   33.5686   38.2550   57.1481 H   0  0  0  0  0  0  0  0  0  0  0  0
   31.9246   39.1212   59.1505 H   0  0  0  0  0  0  0  0  0  0  0  0
   33.6415   38.8745   59.5012 H   0  0  0  0  0  0  0  0  0  0  0  0
   33.0097   38.3934   61.6421 H   0  0  0  0  0  0  0  0  0  0  0  0
   30.4953   39.5443   62.4064 H   0  0  0  0  0  0  0  0  0  0  0  0
   27.6551   36.5063   62.2443 H   0  0  0  0  0  0  0  0  0  0  0  0
  1  2  1  0  0  0  0
  1 17  1  0  0  0  0
  1 18  1  0  0  0  0
  1 19  1  0  0  0  0
  2 16  1  0  0  0  0
  2  3  1  0  0  0  0
  3  8  2  0  0  0  0
  3  4  1  0  0  0  0
  4  5  2  0  0  0  0
  4 20  1  0  0  0  0
  5  6  1  0  0  0  0
  5 21  1  0  0  0  0
  6  7  2  0  0  0  0
  6 22  1  0  0  0  0
  7  8  1  0  0  0  0
  7 23  1  0  0  0  0
  8  9  1  0  0  0  0
  9 10  1  0  0  0  0
  9 24  1  0  0  0  0
  9 25  1  0  0  0  0
 10 11  1  0  0  0  0
 10 26  1  0  0  0  0
 11 16  2  0  0  0  0
 11 12  1  0  0  0  0
 12 13  2  0  0  0  0
 12 27  1  0  0  0  0
 13 14  1  0  0  0  0
 14 15  2  0  0  0  0
 14 28  1  0  0  0  0
 15 16  1  0  0  0  0
M  END
$$$$
