ZINC000000043509      none
 OpenBabel11202420153D

 36 38  0  0  0  0  0  0  0  0999 V2000
   31.5324   33.1476   60.2064 C   0  0  0  0  0  0  0  0  0  0  0  0
   31.2851   33.8496   61.4262 O   0  0  0  0  0  0  0  0  0  0  0  0
   31.5412   35.1781   61.4331 C   0  0  0  0  0  0  0  0  0  0  0  0
   31.3277   35.8909   62.5345 N   0  0  0  0  0  0  0  0  0  0  0  0
   31.5778   37.1888   62.5427 C   0  0  0  0  0  0  0  0  0  0  0  0
   31.3343   37.9934   63.7935 C   0  0  0  0  0  0  0  0  0  0  0  0
   32.0413   37.7823   61.4567 N   0  0  0  0  0  0  0  0  0  0  0  0
   32.2570   37.0746   60.3515 C   0  0  0  0  0  0  0  0  0  0  0  0
   32.7428   37.6967   59.2137 N   0  0  0  0  0  0  0  0  0  0  0  0
   32.9611   36.9787   58.0941 C   0  0  0  0  0  0  0  0  0  0  0  0
   32.7315   35.7846   58.0834 O   0  0  0  0  0  0  0  0  0  0  0  0
   33.4776   37.6404   56.8840 C   0  0  0  0  0  0  0  0  0  0  0  0
   33.7459   39.0195   56.8887 C   0  0  0  0  0  0  0  0  0  0  0  0
   34.2055   39.6324   55.8285 N   0  0  0  0  0  0  0  0  0  0  0  0
   34.4457   38.9819   54.6817 C   0  0  0  0  0  0  0  0  0  0  0  0
   34.9389   39.6649   53.5580 C   0  0  0  0  0  0  0  0  0  0  0  0
   35.1704   38.9857   52.4001 C   0  0  0  0  0  0  0  0  0  0  0  0
   34.9383   37.6157   52.3128 C   0  0  0  0  0  0  0  0  0  0  0  0
   34.4591   36.9201   53.3822 C   0  0  0  0  0  0  0  0  0  0  0  0
   34.2036   37.5904   54.5876 C   0  0  0  0  0  0  0  0  0  0  0  0
   33.7069   36.9015   55.7174 C   0  0  0  0  0  0  0  0  0  0  0  0
   33.4608   35.5723   55.6726 O   0  0  0  0  0  0  0  0  0  0  0  0
   32.0008   35.7714   60.3391 N   0  0  0  0  0  0  0  0  0  0  0  0
   31.2865   32.0937   60.3374 H   0  0  0  0  0  0  0  0  0  0  0  0
   30.9151   33.5689   59.4130 H   0  0  0  0  0  0  0  0  0  0  0  0
   32.5847   33.2443   59.9384 H   0  0  0  0  0  0  0  0  0  0  0  0
   30.3134   38.3751   63.7870 H   0  0  0  0  0  0  0  0  0  0  0  0
   31.4794   37.3588   64.6678 H   0  0  0  0  0  0  0  0  0  0  0  0
   32.0341   38.8282   63.8304 H   0  0  0  0  0  0  0  0  0  0  0  0
   32.9259   38.6492   59.2223 H   0  0  0  0  0  0  0  0  0  0  0  0
   33.5680   39.5876   57.7899 H   0  0  0  0  0  0  0  0  0  0  0  0
   35.1298   40.7266   53.6104 H   0  0  0  0  0  0  0  0  0  0  0  0
   35.5454   39.5173   51.5381 H   0  0  0  0  0  0  0  0  0  0  0  0
   35.1352   37.0990   51.3851 H   0  0  0  0  0  0  0  0  0  0  0  0
   34.2767   35.8587   53.3021 H   0  0  0  0  0  0  0  0  0  0  0  0
   33.1233   35.2066   56.5018 H   0  0  0  0  0  0  0  0  0  0  0  0
  1  2  1  0  0  0  0
  1 24  1  0  0  0  0
  1 25  1  0  0  0  0
  1 26  1  0  0  0  0
  2  3  1  0  0  0  0
  3 23  2  0  0  0  0
  3  4  1  0  0  0  0
  4  5  2  0  0  0  0
  5  6  1  0  0  0  0
  5  7  1  0  0  0  0
  6 27  1  0  0  0  0
  6 28  1  0  0  0  0
  6 29  1  0  0  0  0
  7  8  2  0  0  0  0
  8  9  1  0  0  0  0
  8 23  1  0  0  0  0
  9 10  1  0  0  0  0
  9 30  1  0  0  0  0
 10 11  2  0  0  0  0
 10 12  1  0  0  0  0
 12 21  2  0  0  0  0
 12 13  1  0  0  0  0
 13 14  2  0  0  0  0
 13 31  1  0  0  0  0
 14 15  1  0  0  0  0
 15 20  2  0  0  0  0
 15 16  1  0  0  0  0
 16 17  2  0  0  0  0
 16 32  1  0  0  0  0
 17 18  1  0  0  0  0
 17 33  1  0  0  0  0
 18 19  2  0  0  0  0
 18 34  1  0  0  0  0
 19 20  1  0  0  0  0
 19 35  1  0  0  0  0
 20 21  1  0  0  0  0
 21 22  1  0  0  0  0
 22 36  1  0  0  0  0
M  END
$$$$
