ZINC000000015709      none
 OpenBabel11202420153D

 48 49  0  0  0  0  0  0  0  0999 V2000
   34.9914   37.7698   53.1372 C   0  0  0  0  0  0  0  0  0  0  0  0
   34.6050   38.0734   54.5036 O   0  0  0  0  0  0  0  0  0  0  0  0
   33.7822   37.1993   55.1150 C   0  0  0  0  0  0  0  0  0  0  0  0
   33.3981   36.2106   54.5230 O   0  0  0  0  0  0  0  0  0  0  0  0
   33.3469   37.4433   56.5054 C   0  0  0  0  0  0  0  0  0  0  0  0
   33.0641   36.3683   57.3506 C   0  0  0  0  0  0  0  0  0  0  0  0
   32.6534   36.6032   58.6462 C   0  0  0  0  0  0  0  0  0  0  0  0
   32.5316   37.9003   59.1123 C   0  0  0  0  0  0  0  0  0  0  0  0
   32.0884   38.1491   60.5310 C   0  0  0  0  0  0  0  0  0  0  0  0
   30.9479   37.2849   60.8451 N   0  0  0  0  0  0  0  0  0  0  0  0
   30.0204   36.8820   59.7851 C   0  0  0  0  0  0  0  0  0  0  0  0
   30.7445   36.8444   62.1573 C   0  0  0  0  0  0  0  0  0  0  0  0
   29.9487   35.7333   62.4008 C   0  0  0  0  0  0  0  0  0  0  0  0
   29.7506   35.2935   63.7004 C   0  0  0  0  0  0  0  0  0  0  0  0
   28.9752   34.2020   63.9383 O   0  0  0  0  0  0  0  0  0  0  0  0
   29.6311   32.9325   63.9598 C   0  0  0  0  0  0  0  0  0  0  0  0
   30.3404   35.9715   64.7605 C   0  0  0  0  0  0  0  0  0  0  0  0
   30.1416   35.5433   66.0379 O   0  0  0  0  0  0  0  0  0  0  0  0
   29.0214   36.0884   66.7380 C   0  0  0  0  0  0  0  0  0  0  0  0
   31.1325   37.0869   64.5163 C   0  0  0  0  0  0  0  0  0  0  0  0
   31.7097   37.7511   65.5531 O   0  0  0  0  0  0  0  0  0  0  0  0
   33.0109   37.3195   65.9563 C   0  0  0  0  0  0  0  0  0  0  0  0
   31.3340   37.5223   63.2158 C   0  0  0  0  0  0  0  0  0  0  0  0
   32.8152   38.9702   58.2818 C   0  0  0  0  0  0  0  0  0  0  0  0
   33.2218   38.7496   56.9822 C   0  0  0  0  0  0  0  0  0  0  0  0
   34.1010   37.7182   52.5107 H   0  0  0  0  0  0  0  0  0  0  0  0
   35.6531   38.5516   52.7645 H   0  0  0  0  0  0  0  0  0  0  0  0
   35.5102   36.8115   53.1108 H   0  0  0  0  0  0  0  0  0  0  0  0
   33.1632   35.3553   56.9894 H   0  0  0  0  0  0  0  0  0  0  0  0
   32.4309   35.7728   59.2999 H   0  0  0  0  0  0  0  0  0  0  0  0
   32.9101   37.9283   61.2124 H   0  0  0  0  0  0  0  0  0  0  0  0
   31.7946   39.1929   60.6422 H   0  0  0  0  0  0  0  0  0  0  0  0
   30.3668   35.9526   59.3331 H   0  0  0  0  0  0  0  0  0  0  0  0
   29.0274   36.7319   60.2089 H   0  0  0  0  0  0  0  0  0  0  0  0
   29.9769   37.6616   59.0246 H   0  0  0  0  0  0  0  0  0  0  0  0
   29.4868   35.2092   61.5771 H   0  0  0  0  0  0  0  0  0  0  0  0
   28.9000   32.1491   64.1591 H   0  0  0  0  0  0  0  0  0  0  0  0
   30.1037   32.7513   62.9946 H   0  0  0  0  0  0  0  0  0  0  0  0
   30.3900   32.9289   64.7423 H   0  0  0  0  0  0  0  0  0  0  0  0
   28.9788   35.6646   67.7413 H   0  0  0  0  0  0  0  0  0  0  0  0
   29.1268   37.1712   66.8050 H   0  0  0  0  0  0  0  0  0  0  0  0
   28.1043   35.8450   66.2015 H   0  0  0  0  0  0  0  0  0  0  0  0
   33.3544   37.9313   66.7905 H   0  0  0  0  0  0  0  0  0  0  0  0
   32.9676   36.2751   66.2654 H   0  0  0  0  0  0  0  0  0  0  0  0
   33.7030   37.4228   65.1207 H   0  0  0  0  0  0  0  0  0  0  0  0
   31.9493   38.3892   63.0260 H   0  0  0  0  0  0  0  0  0  0  0  0
   32.7184   39.9801   58.6520 H   0  0  0  0  0  0  0  0  0  0  0  0
   33.4433   39.5855   56.3352 H   0  0  0  0  0  0  0  0  0  0  0  0
  1  2  1  0  0  0  0
  1 26  1  0  0  0  0
  1 27  1  0  0  0  0
  1 28  1  0  0  0  0
  2  3  1  0  0  0  0
  3  4  2  0  0  0  0
  3  5  1  0  0  0  0
  5 25  2  0  0  0  0
  5  6  1  0  0  0  0
  6  7  2  0  0  0  0
  6 29  1  0  0  0  0
  7  8  1  0  0  0  0
  7 30  1  0  0  0  0
  8  9  1  0  0  0  0
  8 24  2  0  0  0  0
  9 10  1  0  0  0  0
  9 31  1  0  0  0  0
  9 32  1  0  0  0  0
 10 11  1  0  0  0  0
 10 12  1  0  0  0  0
 11 33  1  0  0  0  0
 11 34  1  0  0  0  0
 11 35  1  0  0  0  0
 12 23  2  0  0  0  0
 12 13  1  0  0  0  0
 13 14  2  0  0  0  0
 13 36  1  0  0  0  0
 14 15  1  0  0  0  0
 14 17  1  0  0  0  0
 15 16  1  0  0  0  0
 16 37  1  0  0  0  0
 16 38  1  0  0  0  0
 16 39  1  0  0  0  0
 17 18  1  0  0  0  0
 17 20  2  0  0  0  0
 18 19  1  0  0  0  0
 19 40  1  0  0  0  0
 19 41  1  0  0  0  0
 19 42  1  0  0  0  0
 20 21  1  0  0  0  0
 20 23  1  0  0  0  0
 21 22  1  0  0  0  0
 22 43  1  0  0  0  0
 22 44  1  0  0  0  0
 22 45  1  0  0  0  0
 23 46  1  0  0  0  0
 24 25  1  0  0  0  0
 24 47  1  0  0  0  0
 25 48  1  0  0  0  0
M  END
$$$$
