ZINC000000001401      none
 OpenBabel11202420153D

 22 23  0  0  0  0  0  0  0  0999 V2000
   32.6265   33.6335   60.8472 C   0  0  0  0  0  0  0  0  0  0  0  0
   31.6918   33.6582   59.6361 C   0  0  0  0  0  0  0  0  0  0  0  0
   32.1718   34.6483   58.6689 N   0  0  0  0  0  0  0  0  0  0  0  0
   32.2799   35.9899   59.0389 C   0  0  0  0  0  0  0  0  0  0  0  0
   31.9633   36.3834   60.2273 N   0  0  0  0  0  0  0  0  0  0  0  0
   32.2231   38.0531   60.3427 S   0  0  0  0  0  0  0  0  0  0  0  0
   32.7867   38.2738   58.6847 C   0  0  0  0  0  0  0  0  0  0  0  0
   33.2021   39.3803   57.9565 C   0  0  0  0  0  0  0  0  0  0  0  0
   33.5902   39.2290   56.6543 C   0  0  0  0  0  0  0  0  0  0  0  0
   33.5688   37.9723   56.0617 C   0  0  0  0  0  0  0  0  0  0  0  0
   33.1654   36.8735   56.7560 C   0  0  0  0  0  0  0  0  0  0  0  0
   32.7529   36.9943   58.0995 C   0  0  0  0  0  0  0  0  0  0  0  0
   32.2694   32.8969   61.5668 H   0  0  0  0  0  0  0  0  0  0  0  0
   33.6330   33.3675   60.5240 H   0  0  0  0  0  0  0  0  0  0  0  0
   32.6431   34.6186   61.3134 H   0  0  0  0  0  0  0  0  0  0  0  0
   30.6853   33.9242   59.9594 H   0  0  0  0  0  0  0  0  0  0  0  0
   31.6753   32.6731   59.1699 H   0  0  0  0  0  0  0  0  0  0  0  0
   32.4144   34.3717   57.7715 H   0  0  0  0  0  0  0  0  0  0  0  0
   33.2191   40.3569   58.4172 H   0  0  0  0  0  0  0  0  0  0  0  0
   33.9142   40.0877   56.0853 H   0  0  0  0  0  0  0  0  0  0  0  0
   33.8780   37.8657   55.0325 H   0  0  0  0  0  0  0  0  0  0  0  0
   33.1567   35.9065   56.2753 H   0  0  0  0  0  0  0  0  0  0  0  0
  1  2  1  0  0  0  0
  1 13  1  0  0  0  0
  1 14  1  0  0  0  0
  1 15  1  0  0  0  0
  2  3  1  0  0  0  0
  2 16  1  0  0  0  0
  2 17  1  0  0  0  0
  3  4  1  0  0  0  0
  3 18  1  0  0  0  0
  4 12  1  0  0  0  0
  4  5  2  0  0  0  0
  5  6  1  0  0  0  0
  6  7  1  0  0  0  0
  7 12  2  0  0  0  0
  7  8  1  0  0  0  0
  8  9  2  0  0  0  0
  8 19  1  0  0  0  0
  9 10  1  0  0  0  0
  9 20  1  0  0  0  0
 10 11  2  0  0  0  0
 10 21  1  0  0  0  0
 11 12  1  0  0  0  0
 11 22  1  0  0  0  0
M  END
$$$$
