ZINC000000035814      none
 OpenBabel11202420153D

 24 24  0  0  0  0  0  0  0  0999 V2000
   31.8891   37.6535   61.8056 C   0  0  0  0  0  0  0  0  0  0  0  0
   32.5355   37.1198   60.6199 O   0  0  0  0  0  0  0  0  0  0  0  0
   32.0184   37.4773   59.4278 C   0  0  0  0  0  0  0  0  0  0  0  0
   31.0536   38.2150   59.3804 O   0  0  0  0  0  0  0  0  0  0  0  0
   32.6185   36.9696   58.1833 C   0  0  0  0  0  0  0  0  0  0  0  0
   32.6985   35.6371   57.8851 C   0  0  0  0  0  0  0  0  0  0  0  0
   33.4487   35.4070   56.3704 S   0  0  0  0  0  0  0  0  0  0  0  0
   33.6531   37.1373   56.1446 C   0  0  0  0  0  0  0  0  0  0  0  0
   34.2737   37.7659   54.9751 C   0  0  0  0  0  0  0  0  0  0  0  0
   34.8600   38.8248   55.0934 O   0  0  0  0  0  0  0  0  0  0  0  0
   34.1946   37.1700   53.7677 O   0  0  0  0  0  0  0  0  0  0  0  0
   34.8324   37.8496   52.6542 C   0  0  0  0  0  0  0  0  0  0  0  0
   33.1484   37.8017   57.2051 C   0  0  0  0  0  0  0  0  0  0  0  0
   33.1620   39.3043   57.3193 C   0  0  0  0  0  0  0  0  0  0  0  0
   30.8484   37.3300   61.8288 H   0  0  0  0  0  0  0  0  0  0  0  0
   32.4028   37.2887   62.6949 H   0  0  0  0  0  0  0  0  0  0  0  0
   31.9306   38.7425   61.7830 H   0  0  0  0  0  0  0  0  0  0  0  0
   32.3370   34.8417   58.5200 H   0  0  0  0  0  0  0  0  0  0  0  0
   35.8976   37.9593   52.8574 H   0  0  0  0  0  0  0  0  0  0  0  0
   34.6943   37.2650   51.7446 H   0  0  0  0  0  0  0  0  0  0  0  0
   34.3839   38.8345   52.5246 H   0  0  0  0  0  0  0  0  0  0  0  0
   34.0831   39.6232   57.8071 H   0  0  0  0  0  0  0  0  0  0  0  0
   33.1066   39.7450   56.3239 H   0  0  0  0  0  0  0  0  0  0  0  0
   32.3060   39.6315   57.9097 H   0  0  0  0  0  0  0  0  0  0  0  0
  1  2  1  0  0  0  0
  1 15  1  0  0  0  0
  1 16  1  0  0  0  0
  1 17  1  0  0  0  0
  2  3  1  0  0  0  0
  3  4  2  0  0  0  0
  3  5  1  0  0  0  0
  5 13  1  0  0  0  0
  5  6  2  0  0  0  0
  6  7  1  0  0  0  0
  6 18  1  0  0  0  0
  7  8  1  0  0  0  0
  8  9  1  0  0  0  0
  8 13  2  0  0  0  0
  9 10  2  0  0  0  0
  9 11  1  0  0  0  0
 11 12  1  0  0  0  0
 12 19  1  0  0  0  0
 12 20  1  0  0  0  0
 12 21  1  0  0  0  0
 13 14  1  0  0  0  0
 14 22  1  0  0  0  0
 14 23  1  0  0  0  0
 14 24  1  0  0  0  0
M  END
$$$$
