ZINC000000018644      none
 OpenBabel11202420153D

 27 28  0  0  0  0  0  0  0  0999 V2000
   32.1684   37.9030   60.2171 C   0  0  0  0  0  0  0  0  0  0  0  0
   32.6464   37.8676   58.7883 C   0  0  0  0  0  0  0  0  0  0  0  0
   32.8244   39.0551   58.1009 C   0  0  0  0  0  0  0  0  0  0  0  0
   33.2685   39.0196   56.7912 C   0  0  0  0  0  0  0  0  0  0  0  0
   33.5114   37.7701   56.2065 C   0  0  0  0  0  0  0  0  0  0  0  0
   33.9811   37.6732   54.8104 C   0  0  0  0  0  0  0  0  0  0  0  0
   34.6927   38.6279   54.3560 N   0  0  0  0  0  0  0  0  0  0  0  0
   35.2252   38.7001   53.0019 C   0  0  0  0  0  0  0  0  0  0  0  0
   35.2042   37.3195   52.3433 C   0  0  0  0  0  0  0  0  0  0  0  0
   33.8059   36.7151   52.5281 C   0  0  0  0  0  0  0  0  0  0  0  0
   33.5908   36.4570   54.0219 C   0  0  0  0  0  0  0  0  0  0  0  0
   33.3070   36.6184   56.9682 C   0  0  0  0  0  0  0  0  0  0  0  0
   32.8879   36.7050   58.2137 N   0  0  0  0  0  0  0  0  0  0  0  0
   33.0272   37.9531   60.8864 H   0  0  0  0  0  0  0  0  0  0  0  0
   31.5384   38.7796   60.3678 H   0  0  0  0  0  0  0  0  0  0  0  0
   31.5937   37.0016   60.4303 H   0  0  0  0  0  0  0  0  0  0  0  0
   32.6224   40.0001   58.5831 H   0  0  0  0  0  0  0  0  0  0  0  0
   33.4199   39.9314   56.2326 H   0  0  0  0  0  0  0  0  0  0  0  0
   36.2513   39.0659   53.0380 H   0  0  0  0  0  0  0  0  0  0  0  0
   34.6185   39.3885   52.4135 H   0  0  0  0  0  0  0  0  0  0  0  0
   35.9471   36.6766   52.8151 H   0  0  0  0  0  0  0  0  0  0  0  0
   35.4248   37.4161   51.2802 H   0  0  0  0  0  0  0  0  0  0  0  0
   33.7355   35.7764   51.9787 H   0  0  0  0  0  0  0  0  0  0  0  0
   33.0525   37.4130   52.1630 H   0  0  0  0  0  0  0  0  0  0  0  0
   32.5399   36.2304   54.2025 H   0  0  0  0  0  0  0  0  0  0  0  0
   34.2024   35.6109   54.3349 H   0  0  0  0  0  0  0  0  0  0  0  0
   33.4940   35.6480   56.5325 H   0  0  0  0  0  0  0  0  0  0  0  0
  1  2  1  0  0  0  0
  1 14  1  0  0  0  0
  1 15  1  0  0  0  0
  1 16  1  0  0  0  0
  2 13  2  0  0  0  0
  2  3  1  0  0  0  0
  3  4  2  0  0  0  0
  3 17  1  0  0  0  0
  4  5  1  0  0  0  0
  4 18  1  0  0  0  0
  5  6  1  0  0  0  0
  5 12  2  0  0  0  0
  6 11  1  0  0  0  0
  6  7  2  0  0  0  0
  7  8  1  0  0  0  0
  8  9  1  0  0  0  0
  8 19  1  0  0  0  0
  8 20  1  0  0  0  0
  9 10  1  0  0  0  0
  9 21  1  0  0  0  0
  9 22  1  0  0  0  0
 10 11  1  0  0  0  0
 10 23  1  0  0  0  0
 10 24  1  0  0  0  0
 11 25  1  0  0  0  0
 11 26  1  0  0  0  0
 12 13  1  0  0  0  0
 12 27  1  0  0  0  0
M  END
$$$$
