ZINC000000037179      none
 OpenBabel11202420153D

 27 28  0  0  0  0  0  0  0  0999 V2000
   33.9347   36.0892   55.0778 C   0  0  0  0  0  0  0  0  0  0  0  0
   33.5092   36.8900   56.2814 C   0  0  0  0  0  0  0  0  0  0  0  0
   32.8736   36.4238   57.3238 N   0  0  0  0  0  0  0  0  0  0  0  0
   32.6675   37.4793   58.2217 N   0  0  0  0  0  0  0  0  0  0  0  0
   32.0501   37.3966   59.4168 C   0  0  0  0  0  0  0  0  0  0  0  0
   31.4499   38.3562   59.8581 O   0  0  0  0  0  0  0  0  0  0  0  0
   32.1034   36.1409   60.1892 C   0  0  0  0  0  0  0  0  0  0  0  0
   32.0636   36.1742   61.5859 C   0  0  0  0  0  0  0  0  0  0  0  0
   32.1079   34.9976   62.3019 C   0  0  0  0  0  0  0  0  0  0  0  0
   32.2036   33.7828   61.6397 C   0  0  0  0  0  0  0  0  0  0  0  0
   32.2530   32.6329   62.3470 F   0  0  0  0  0  0  0  0  0  0  0  0
   32.2493   33.7441   60.2542 C   0  0  0  0  0  0  0  0  0  0  0  0
   32.2000   34.9138   59.5275 C   0  0  0  0  0  0  0  0  0  0  0  0
   33.2009   38.6053   57.6691 C   0  0  0  0  0  0  0  0  0  0  0  0
   33.2074   39.9815   58.2832 C   0  0  0  0  0  0  0  0  0  0  0  0
   33.7281   38.2620   56.4729 C   0  0  0  0  0  0  0  0  0  0  0  0
   34.5337   39.3312   55.3677 Cl  0  0  0  0  0  0  0  0  0  0  0  0
   34.9353   35.6893   55.2427 H   0  0  0  0  0  0  0  0  0  0  0  0
   33.2360   35.2671   54.9228 H   0  0  0  0  0  0  0  0  0  0  0  0
   33.9408   36.7319   54.1975 H   0  0  0  0  0  0  0  0  0  0  0  0
   31.9935   37.1198   62.1027 H   0  0  0  0  0  0  0  0  0  0  0  0
   32.0730   35.0219   63.3810 H   0  0  0  0  0  0  0  0  0  0  0  0
   32.3243   32.7952   59.7438 H   0  0  0  0  0  0  0  0  0  0  0  0
   32.2360   34.8825   58.4485 H   0  0  0  0  0  0  0  0  0  0  0  0
   32.3111   40.5204   57.9765 H   0  0  0  0  0  0  0  0  0  0  0  0
   34.0908   40.5248   57.9477 H   0  0  0  0  0  0  0  0  0  0  0  0
   33.2252   39.8945   59.3696 H   0  0  0  0  0  0  0  0  0  0  0  0
  1  2  1  0  0  0  0
  1 18  1  0  0  0  0
  1 19  1  0  0  0  0
  1 20  1  0  0  0  0
  2 16  1  0  0  0  0
  2  3  2  0  0  0  0
  3  4  1  0  0  0  0
  4  5  1  0  0  0  0
  4 14  1  0  0  0  0
  5  6  2  0  0  0  0
  5  7  1  0  0  0  0
  7 13  2  0  0  0  0
  7  8  1  0  0  0  0
  8  9  2  0  0  0  0
  8 21  1  0  0  0  0
  9 10  1  0  0  0  0
  9 22  1  0  0  0  0
 10 11  1  0  0  0  0
 10 12  2  0  0  0  0
 12 13  1  0  0  0  0
 12 23  1  0  0  0  0
 13 24  1  0  0  0  0
 14 15  1  0  0  0  0
 14 16  2  0  0  0  0
 15 25  1  0  0  0  0
 15 26  1  0  0  0  0
 15 27  1  0  0  0  0
 16 17  1  0  0  0  0
M  END
$$$$
