ZINC000000032312      none
 OpenBabel11202420153D

 26 26  0  0  0  0  0  0  0  0999 V2000
   33.8529   37.7990   54.9143 C   0  0  0  0  0  0  0  0  0  0  0  0
   33.4162   38.1285   56.2344 O   0  0  0  0  0  0  0  0  0  0  0  0
   33.1013   37.0948   57.0549 C   0  0  0  0  0  0  0  0  0  0  0  0
   33.2069   35.7892   56.5918 C   0  0  0  0  0  0  0  0  0  0  0  0
   32.8940   34.7294   57.4217 C   0  0  0  0  0  0  0  0  0  0  0  0
   33.0030   33.4557   56.9691 O   0  0  0  0  0  0  0  0  0  0  0  0
   33.4539   33.2813   55.6244 C   0  0  0  0  0  0  0  0  0  0  0  0
   32.4558   34.9767   58.7363 C   0  0  0  0  0  0  0  0  0  0  0  0
   32.1157   33.8633   59.6198 C   0  0  0  0  0  0  0  0  0  0  0  0
   32.2673   33.9721   60.8191 O   0  0  0  0  0  0  0  0  0  0  0  0
   32.3467   36.3033   59.1943 C   0  0  0  0  0  0  0  0  0  0  0  0
   31.9253   36.5540   60.4587 O   0  0  0  0  0  0  0  0  0  0  0  0
   31.8391   37.9245   60.8540 C   0  0  0  0  0  0  0  0  0  0  0  0
   32.6702   37.3493   58.3510 C   0  0  0  0  0  0  0  0  0  0  0  0
   33.0679   37.2451   54.3995 H   0  0  0  0  0  0  0  0  0  0  0  0
   34.0716   38.7147   54.3648 H   0  0  0  0  0  0  0  0  0  0  0  0
   34.7524   37.1861   54.9715 H   0  0  0  0  0  0  0  0  0  0  0  0
   33.5387   35.6018   55.5813 H   0  0  0  0  0  0  0  0  0  0  0  0
   33.4963   32.2176   55.3904 H   0  0  0  0  0  0  0  0  0  0  0  0
   32.7627   33.7763   54.9423 H   0  0  0  0  0  0  0  0  0  0  0  0
   34.4470   33.7171   55.5149 H   0  0  0  0  0  0  0  0  0  0  0  0
   31.7296   32.9437   59.2056 H   0  0  0  0  0  0  0  0  0  0  0  0
   31.1386   38.4472   60.2027 H   0  0  0  0  0  0  0  0  0  0  0  0
   31.4902   37.9840   61.8849 H   0  0  0  0  0  0  0  0  0  0  0  0
   32.8227   38.3876   60.7758 H   0  0  0  0  0  0  0  0  0  0  0  0
   32.5872   38.3677   58.7006 H   0  0  0  0  0  0  0  0  0  0  0  0
  1  2  1  0  0  0  0
  1 15  1  0  0  0  0
  1 16  1  0  0  0  0
  1 17  1  0  0  0  0
  2  3  1  0  0  0  0
  3 14  2  0  0  0  0
  3  4  1  0  0  0  0
  4  5  2  0  0  0  0
  4 18  1  0  0  0  0
  5  6  1  0  0  0  0
  5  8  1  0  0  0  0
  6  7  1  0  0  0  0
  7 19  1  0  0  0  0
  7 20  1  0  0  0  0
  7 21  1  0  0  0  0
  8  9  1  0  0  0  0
  8 11  2  0  0  0  0
  9 10  2  0  0  0  0
  9 22  1  0  0  0  0
 11 12  1  0  0  0  0
 11 14  1  0  0  0  0
 12 13  1  0  0  0  0
 13 23  1  0  0  0  0
 13 24  1  0  0  0  0
 13 25  1  0  0  0  0
 14 26  1  0  0  0  0
M  END
$$$$
