ZINC000000028304      none
 OpenBabel11202420163D

 28 28  0  0  0  0  0  0  0  0999 V2000
   33.6573   33.0690   52.9476 C   0  0  0  0  0  0  0  0  0  0  0  0
   34.4830   32.7999   54.2072 C   0  0  0  0  0  0  0  0  0  0  0  0
   33.6456   33.1261   55.4453 C   0  0  0  0  0  0  0  0  0  0  0  0
   33.2413   34.5774   55.4104 C   0  0  0  0  0  0  0  0  0  0  0  0
   32.2047   34.9052   54.8729 O   0  0  0  0  0  0  0  0  0  0  0  0
   34.0315   35.5109   55.9766 N   0  0  0  0  0  0  0  0  0  0  0  0
   33.6383   36.9218   55.9425 C   0  0  0  0  0  0  0  0  0  0  0  0
   34.1937   37.5681   54.6995 C   0  0  0  0  0  0  0  0  0  0  0  0
   34.5165   38.9122   54.7047 C   0  0  0  0  0  0  0  0  0  0  0  0
   35.0267   39.5049   53.5648 C   0  0  0  0  0  0  0  0  0  0  0  0
   35.2145   38.7534   52.4199 C   0  0  0  0  0  0  0  0  0  0  0  0
   34.8866   37.4105   52.4131 C   0  0  0  0  0  0  0  0  0  0  0  0
   34.3806   36.8168   53.5543 C   0  0  0  0  0  0  0  0  0  0  0  0
   32.7647   32.4434   52.9577 H   0  0  0  0  0  0  0  0  0  0  0  0
   33.3650   34.1188   52.9222 H   0  0  0  0  0  0  0  0  0  0  0  0
   34.2540   32.8365   52.0654 H   0  0  0  0  0  0  0  0  0  0  0  0
   35.3756   33.4254   54.1971 H   0  0  0  0  0  0  0  0  0  0  0  0
   34.7754   31.7501   54.2326 H   0  0  0  0  0  0  0  0  0  0  0  0
   34.2338   32.9342   56.3428 H   0  0  0  0  0  0  0  0  0  0  0  0
   32.7531   32.5005   55.4554 H   0  0  0  0  0  0  0  0  0  0  0  0
   34.8605   35.2487   56.4065 H   0  0  0  0  0  0  0  0  0  0  0  0
   34.0317   37.4300   56.8230 H   0  0  0  0  0  0  0  0  0  0  0  0
   32.5509   36.9959   55.9357 H   0  0  0  0  0  0  0  0  0  0  0  0
   34.3705   39.4993   55.5995 H   0  0  0  0  0  0  0  0  0  0  0  0
   35.2789   40.5550   53.5689 H   0  0  0  0  0  0  0  0  0  0  0  0
   35.6131   39.2165   51.5294 H   0  0  0  0  0  0  0  0  0  0  0  0
   35.0292   36.8243   51.5173 H   0  0  0  0  0  0  0  0  0  0  0  0
   34.1287   35.7666   53.5504 H   0  0  0  0  0  0  0  0  0  0  0  0
  1  2  1  0  0  0  0
  1 14  1  0  0  0  0
  1 15  1  0  0  0  0
  1 16  1  0  0  0  0
  2  3  1  0  0  0  0
  2 17  1  0  0  0  0
  2 18  1  0  0  0  0
  3  4  1  0  0  0  0
  3 19  1  0  0  0  0
  3 20  1  0  0  0  0
  4  5  2  0  0  0  0
  4  6  1  0  0  0  0
  6  7  1  0  0  0  0
  6 21  1  0  0  0  0
  7  8  1  0  0  0  0
  7 22  1  0  0  0  0
  7 23  1  0  0  0  0
  8 13  2  0  0  0  0
  8  9  1  0  0  0  0
  9 10  2  0  0  0  0
  9 24  1  0  0  0  0
 10 11  1  0  0  0  0
 10 25  1  0  0  0  0
 11 12  2  0  0  0  0
 11 26  1  0  0  0  0
 12 13  1  0  0  0  0
 12 27  1  0  0  0  0
 13 28  1  0  0  0  0
M  END
$$$$
