ZINC000000029694      none
 OpenBabel11202420163D

 46 47  0  0  0  0  0  0  0  0999 V2000
   34.4924   35.4205   55.2774 C   0  0  0  0  0  0  0  0  0  0  0  0
   33.6484   35.6181   56.5102 C   0  0  0  0  0  0  0  0  0  0  0  0
   33.0236   34.6872   56.9730 O   0  0  0  0  0  0  0  0  0  0  0  0
   33.5881   36.8291   57.0987 N   0  0  0  0  0  0  0  0  0  0  0  0
   32.8045   37.0124   58.2433 C   0  0  0  0  0  0  0  0  0  0  0  0
   32.7416   38.2595   58.8512 C   0  0  0  0  0  0  0  0  0  0  0  0
   31.9676   38.4370   59.9811 C   0  0  0  0  0  0  0  0  0  0  0  0
   31.2557   37.3747   60.5073 C   0  0  0  0  0  0  0  0  0  0  0  0
   30.2699   37.6052   61.9495 S   0  0  0  0  0  0  0  0  0  0  0  0
   29.0415   36.9330   61.7073 O   0  0  0  0  0  0  0  0  0  0  0  0
   30.3494   38.9865   62.2733 O   0  0  0  0  0  0  0  0  0  0  0  0
   31.0123   36.7916   63.1860 N   0  0  0  0  0  0  0  0  0  0  0  0
   32.3755   37.1509   63.5849 C   0  0  0  0  0  0  0  0  0  0  0  0
   32.3787   37.5840   65.0283 C   0  0  0  0  0  0  0  0  0  0  0  0
   32.1867   38.9145   65.3510 C   0  0  0  0  0  0  0  0  0  0  0  0
   32.1849   39.3110   66.6753 C   0  0  0  0  0  0  0  0  0  0  0  0
   32.3854   38.3790   67.6763 C   0  0  0  0  0  0  0  0  0  0  0  0
   32.5824   37.0494   67.3532 C   0  0  0  0  0  0  0  0  0  0  0  0
   32.5791   36.6520   66.0293 C   0  0  0  0  0  0  0  0  0  0  0  0
   30.3085   35.7085   63.8771 C   0  0  0  0  0  0  0  0  0  0  0  0
   29.0279   36.2554   64.5111 C   0  0  0  0  0  0  0  0  0  0  0  0
   29.9519   34.6099   62.8737 C   0  0  0  0  0  0  0  0  0  0  0  0
   31.3204   36.1303   59.9076 C   0  0  0  0  0  0  0  0  0  0  0  0
   32.0885   35.9476   58.7743 C   0  0  0  0  0  0  0  0  0  0  0  0
   34.9749   36.3616   55.0129 H   0  0  0  0  0  0  0  0  0  0  0  0
   35.2529   34.6651   55.4749 H   0  0  0  0  0  0  0  0  0  0  0  0
   33.8598   35.0924   54.4527 H   0  0  0  0  0  0  0  0  0  0  0  0
   34.0878   37.5736   56.7287 H   0  0  0  0  0  0  0  0  0  0  0  0
   33.2976   39.0894   58.4409 H   0  0  0  0  0  0  0  0  0  0  0  0
   31.9185   39.4065   60.4545 H   0  0  0  0  0  0  0  0  0  0  0  0
   33.0293   36.2874   63.4633 H   0  0  0  0  0  0  0  0  0  0  0  0
   32.7334   37.9686   62.9593 H   0  0  0  0  0  0  0  0  0  0  0  0
   32.0346   39.6434   64.5690 H   0  0  0  0  0  0  0  0  0  0  0  0
   32.0313   40.3499   66.9277 H   0  0  0  0  0  0  0  0  0  0  0  0
   32.3882   38.6895   68.7107 H   0  0  0  0  0  0  0  0  0  0  0  0
   32.7393   36.3213   68.1352 H   0  0  0  0  0  0  0  0  0  0  0  0
   32.7335   35.6132   65.7768 H   0  0  0  0  0  0  0  0  0  0  0  0
   30.9511   35.2956   64.6548 H   0  0  0  0  0  0  0  0  0  0  0  0
   28.2651   36.3774   63.7421 H   0  0  0  0  0  0  0  0  0  0  0  0
   28.6712   35.5583   65.2692 H   0  0  0  0  0  0  0  0  0  0  0  0
   29.2349   37.2205   64.9737 H   0  0  0  0  0  0  0  0  0  0  0  0
   30.8664   34.1817   62.4634 H   0  0  0  0  0  0  0  0  0  0  0  0
   29.3795   33.8303   63.3766 H   0  0  0  0  0  0  0  0  0  0  0  0
   29.3555   35.0349   62.0664 H   0  0  0  0  0  0  0  0  0  0  0  0
   30.7665   35.3017   60.3233 H   0  0  0  0  0  0  0  0  0  0  0  0
   32.1353   34.9764   58.3039 H   0  0  0  0  0  0  0  0  0  0  0  0
  1  2  1  0  0  0  0
  1 25  1  0  0  0  0
  1 26  1  0  0  0  0
  1 27  1  0  0  0  0
  2  3  2  0  0  0  0
  2  4  1  0  0  0  0
  4  5  1  0  0  0  0
  4 28  1  0  0  0  0
  5 24  2  0  0  0  0
  5  6  1  0  0  0  0
  6  7  2  0  0  0  0
  6 29  1  0  0  0  0
  7  8  1  0  0  0  0
  7 30  1  0  0  0  0
  8  9  1  0  0  0  0
  8 23  2  0  0  0  0
  9 10  2  0  0  0  0
  9 11  2  0  0  0  0
  9 12  1  0  0  0  0
 12 13  1  0  0  0  0
 12 20  1  0  0  0  0
 13 14  1  0  0  0  0
 13 31  1  0  0  0  0
 13 32  1  0  0  0  0
 14 19  2  0  0  0  0
 14 15  1  0  0  0  0
 15 16  2  0  0  0  0
 15 33  1  0  0  0  0
 16 17  1  0  0  0  0
 16 34  1  0  0  0  0
 17 18  2  0  0  0  0
 17 35  1  0  0  0  0
 18 19  1  0  0  0  0
 18 36  1  0  0  0  0
 19 37  1  0  0  0  0
 20 21  1  0  0  0  0
 20 22  1  0  0  0  0
 20 38  1  0  0  0  0
 21 39  1  0  0  0  0
 21 40  1  0  0  0  0
 21 41  1  0  0  0  0
 22 42  1  0  0  0  0
 22 43  1  0  0  0  0
 22 44  1  0  0  0  0
 23 24  1  0  0  0  0
 23 45  1  0  0  0  0
 24 46  1  0  0  0  0
M  END
$$$$
