ZINC000000040053      none
 OpenBabel11202420153D

 26 27  0  0  1  0  0  0  0  0999 V2000
   35.0368   31.4403   54.3330 C   0  0  0  0  0  0  0  0  0  0  0  0
   34.1861   32.6158   54.7397 C   0  0  0  0  0  0  0  0  0  0  0  0
   32.9895   32.8392   54.3555 N   0  0  0  0  0  0  0  0  0  0  0  0
   32.4387   34.0182   54.9084 O   0  0  0  0  0  0  0  0  0  0  0  0
   33.5323   34.8148   55.4086 C   0  0  1  0  0  0  0  0  0  0  0  0
   33.9786   35.7487   54.4235 O   0  0  0  0  0  0  0  0  0  0  0  0
   33.1479   35.5201   56.6837 C   0  0  0  0  0  0  0  0  0  0  0  0
   32.7655   34.7866   57.7911 C   0  0  0  0  0  0  0  0  0  0  0  0
   32.4176   35.4335   58.9623 C   0  0  0  0  0  0  0  0  0  0  0  0
   32.4425   36.8143   59.0228 C   0  0  0  0  0  0  0  0  0  0  0  0
   32.0650   37.5072   60.2752 N   0  0  0  0  0  0  0  0  0  0  0  0
   31.7325   36.8607   61.2524 O   0  0  0  0  0  0  0  0  0  0  0  0
   32.0870   38.7238   60.3284 O   0  0  0  0  0  0  0  0  0  0  0  0
   32.8193   37.5481   57.9135 C   0  0  0  0  0  0  0  0  0  0  0  0
   33.1723   36.9010   56.7441 C   0  0  0  0  0  0  0  0  0  0  0  0
   34.6068   33.7333   55.6752 C   0  0  0  0  0  0  0  0  0  0  0  0
   34.4726   30.8012   53.6536 H   0  0  0  0  0  0  0  0  0  0  0  0
   35.9361   31.7986   53.8320 H   0  0  0  0  0  0  0  0  0  0  0  0
   35.3169   30.8706   55.2190 H   0  0  0  0  0  0  0  0  0  0  0  0
   34.2727   35.3393   53.5984 H   0  0  0  0  0  0  0  0  0  0  0  0
   32.7422   33.7079   57.7427 H   0  0  0  0  0  0  0  0  0  0  0  0
   32.1229   34.8602   59.8288 H   0  0  0  0  0  0  0  0  0  0  0  0
   32.8384   38.6268   57.9607 H   0  0  0  0  0  0  0  0  0  0  0  0
   33.4667   37.4743   55.8774 H   0  0  0  0  0  0  0  0  0  0  0  0
   34.5740   33.4023   56.7131 H   0  0  0  0  0  0  0  0  0  0  0  0
   35.5996   34.1016   55.4163 H   0  0  0  0  0  0  0  0  0  0  0  0
  1  2  1  0  0  0  0
  1 17  1  0  0  0  0
  1 18  1  0  0  0  0
  1 19  1  0  0  0  0
  2 16  1  0  0  0  0
  2  3  2  0  0  0  0
  3  4  1  0  0  0  0
  4  5  1  0  0  0  0
  5  6  1  6  0  0  0
  5  7  1  0  0  0  0
  5 16  1  0  0  0  0
  6 20  1  0  0  0  0
  7 15  2  0  0  0  0
  7  8  1  0  0  0  0
  8  9  2  0  0  0  0
  8 21  1  0  0  0  0
  9 10  1  0  0  0  0
  9 22  1  0  0  0  0
 10 11  1  0  0  0  0
 10 14  2  0  0  0  0
 11 12  2  0  0  0  0
 11 13  2  0  0  0  0
 14 15  1  0  0  0  0
 14 23  1  0  0  0  0
 15 24  1  0  0  0  0
 16 25  1  0  0  0  0
 16 26  1  0  0  0  0
M  END
$$$$
