ZINC000000047918      none
 OpenBabel11202420153D

 35 38  0  0  0  0  0  0  0  0999 V2000
   31.3110   37.8620   63.2921 C   0  0  0  0  0  0  0  0  0  0  0  0
   30.6391   38.3205   62.1736 C   0  0  0  0  0  0  0  0  0  0  0  0
   30.9018   37.7702   60.9346 C   0  0  0  0  0  0  0  0  0  0  0  0
   31.8423   36.7551   60.8123 C   0  0  0  0  0  0  0  0  0  0  0  0
   32.1102   36.1958   59.5604 N   0  0  0  0  0  0  0  0  0  0  0  0
   32.5829   36.9916   58.5352 C   0  0  0  0  0  0  0  0  0  0  0  0
   32.7787   38.2763   58.7452 N   0  0  0  0  0  0  0  0  0  0  0  0
   33.2415   39.0457   57.7514 C   0  0  0  0  0  0  0  0  0  0  0  0
   33.5554   40.3064   57.5698 N   0  0  0  0  0  0  0  0  0  0  0  0
   33.9309   40.4615   56.4264 O   0  0  0  0  0  0  0  0  0  0  0  0
   33.9382   39.4719   55.7240 N   0  0  0  0  0  0  0  0  0  0  0  0
   33.5168   38.4456   56.4239 C   0  0  0  0  0  0  0  0  0  0  0  0
   33.3061   37.1374   56.2296 N   0  0  0  0  0  0  0  0  0  0  0  0
   32.8559   36.3974   57.2209 C   0  0  0  0  0  0  0  0  0  0  0  0
   32.6380   35.0479   57.0222 N   0  0  0  0  0  0  0  0  0  0  0  0
   32.8952   34.4750   55.7742 C   0  0  0  0  0  0  0  0  0  0  0  0
   33.2932   33.1468   55.6865 C   0  0  0  0  0  0  0  0  0  0  0  0
   33.5424   32.5824   54.4511 C   0  0  0  0  0  0  0  0  0  0  0  0
   33.4053   33.3407   53.3024 C   0  0  0  0  0  0  0  0  0  0  0  0
   33.0145   34.6642   53.3864 C   0  0  0  0  0  0  0  0  0  0  0  0
   32.7590   35.2337   54.6184 C   0  0  0  0  0  0  0  0  0  0  0  0
   32.5116   36.2932   61.9388 C   0  0  0  0  0  0  0  0  0  0  0  0
   32.2475   36.8512   63.1741 C   0  0  0  0  0  0  0  0  0  0  0  0
   31.1037   38.2940   64.2600 H   0  0  0  0  0  0  0  0  0  0  0  0
   29.9085   39.1099   62.2694 H   0  0  0  0  0  0  0  0  0  0  0  0
   30.3764   38.1285   60.0616 H   0  0  0  0  0  0  0  0  0  0  0  0
   31.9641   35.2484   59.4110 H   0  0  0  0  0  0  0  0  0  0  0  0
   32.3064   34.4981   57.7492 H   0  0  0  0  0  0  0  0  0  0  0  0
   33.4040   32.5553   56.5834 H   0  0  0  0  0  0  0  0  0  0  0  0
   33.8479   31.5489   54.3820 H   0  0  0  0  0  0  0  0  0  0  0  0
   33.6043   32.8980   52.3377 H   0  0  0  0  0  0  0  0  0  0  0  0
   32.9085   35.2534   52.4875 H   0  0  0  0  0  0  0  0  0  0  0  0
   32.4541   36.2677   54.6833 H   0  0  0  0  0  0  0  0  0  0  0  0
   33.2403   35.5014   61.8479 H   0  0  0  0  0  0  0  0  0  0  0  0
   32.7704   36.4955   64.0495 H   0  0  0  0  0  0  0  0  0  0  0  0
  1 23  2  0  0  0  0
  1  2  1  0  0  0  0
  1 24  1  0  0  0  0
  2  3  2  0  0  0  0
  2 25  1  0  0  0  0
  3  4  1  0  0  0  0
  3 26  1  0  0  0  0
  4  5  1  0  0  0  0
  4 22  2  0  0  0  0
  5  6  1  0  0  0  0
  5 27  1  0  0  0  0
  6 14  1  0  0  0  0
  6  7  2  0  0  0  0
  7  8  1  0  0  0  0
  8 12  1  0  0  0  0
  8  9  2  0  0  0  0
  9 10  1  0  0  0  0
 10 11  1  0  0  0  0
 11 12  2  0  0  0  0
 12 13  1  0  0  0  0
 13 14  2  0  0  0  0
 14 15  1  0  0  0  0
 15 16  1  0  0  0  0
 15 28  1  0  0  0  0
 16 21  2  0  0  0  0
 16 17  1  0  0  0  0
 17 18  2  0  0  0  0
 17 29  1  0  0  0  0
 18 19  1  0  0  0  0
 18 30  1  0  0  0  0
 19 20  2  0  0  0  0
 19 31  1  0  0  0  0
 20 21  1  0  0  0  0
 20 32  1  0  0  0  0
 21 33  1  0  0  0  0
 22 23  1  0  0  0  0
 22 34  1  0  0  0  0
 23 35  1  0  0  0  0
M  END
$$$$
