ZINC000000011459      none
 OpenBabel11202420153D

 37 39  0  0  0  0  0  0  0  0999 V2000
   29.8219   38.0415   67.9752 C   0  0  0  0  0  0  0  0  0  0  0  0
   30.4299   39.1652   67.1333 C   0  0  0  0  0  0  0  0  0  0  0  0
   31.4466   39.9593   67.9557 C   0  0  0  0  0  0  0  0  0  0  0  0
   29.3443   40.0773   66.6030 C   0  0  0  0  0  0  0  0  0  0  0  0
   28.5721   40.7382   67.2647 O   0  0  0  0  0  0  0  0  0  0  0  0
   29.3972   40.0177   65.2618 N   0  0  0  0  0  0  0  0  0  0  0  0
   30.4033   39.1621   64.8099 C   0  0  0  0  0  0  0  0  0  0  0  0
   30.7941   38.8239   63.5182 C   0  0  0  0  0  0  0  0  0  0  0  0
   31.8419   37.9275   63.3194 C   0  0  0  0  0  0  0  0  0  0  0  0
   32.2527   37.5646   61.9466 C   0  0  0  0  0  0  0  0  0  0  0  0
   32.7798   36.4901   61.7341 O   0  0  0  0  0  0  0  0  0  0  0  0
   32.0427   38.4249   60.9307 N   0  0  0  0  0  0  0  0  0  0  0  0
   32.4313   38.0815   59.6319 C   0  0  0  0  0  0  0  0  0  0  0  0
   32.8106   39.0713   58.7343 C   0  0  0  0  0  0  0  0  0  0  0  0
   33.1891   38.7293   57.4509 C   0  0  0  0  0  0  0  0  0  0  0  0
   33.2008   37.4021   57.0625 C   0  0  0  0  0  0  0  0  0  0  0  0
   32.8238   36.4143   57.9537 C   0  0  0  0  0  0  0  0  0  0  0  0
   32.4392   36.7500   59.2369 C   0  0  0  0  0  0  0  0  0  0  0  0
   32.5081   37.3764   64.4158 C   0  0  0  0  0  0  0  0  0  0  0  0
   32.1197   37.7199   65.6955 C   0  0  0  0  0  0  0  0  0  0  0  0
   31.0786   38.6029   65.8889 C   0  0  0  0  0  0  0  0  0  0  0  0
   30.6054   37.3431   68.2692 H   0  0  0  0  0  0  0  0  0  0  0  0
   29.3594   38.4650   68.8667 H   0  0  0  0  0  0  0  0  0  0  0  0
   29.0678   37.5159   67.3894 H   0  0  0  0  0  0  0  0  0  0  0  0
   31.8352   40.7824   67.3564 H   0  0  0  0  0  0  0  0  0  0  0  0
   30.9619   40.3564   68.8476 H   0  0  0  0  0  0  0  0  0  0  0  0
   32.2672   39.3044   68.2493 H   0  0  0  0  0  0  0  0  0  0  0  0
   28.8045   40.5128   64.6749 H   0  0  0  0  0  0  0  0  0  0  0  0
   30.2825   39.2531   62.6695 H   0  0  0  0  0  0  0  0  0  0  0  0
   31.6220   39.2824   61.1003 H   0  0  0  0  0  0  0  0  0  0  0  0
   32.8051   40.1076   59.0382 H   0  0  0  0  0  0  0  0  0  0  0  0
   33.4802   39.4987   56.7512 H   0  0  0  0  0  0  0  0  0  0  0  0
   33.5013   37.1369   56.0596 H   0  0  0  0  0  0  0  0  0  0  0  0
   32.8305   35.3790   57.6460 H   0  0  0  0  0  0  0  0  0  0  0  0
   32.1444   35.9781   59.9324 H   0  0  0  0  0  0  0  0  0  0  0  0
   33.3230   36.6842   64.2636 H   0  0  0  0  0  0  0  0  0  0  0  0
   32.6320   37.2961   66.5466 H   0  0  0  0  0  0  0  0  0  0  0  0
  1  2  1  0  0  0  0
  1 22  1  0  0  0  0
  1 23  1  0  0  0  0
  1 24  1  0  0  0  0
  2 21  1  0  0  0  0
  2  3  1  0  0  0  0
  2  4  1  0  0  0  0
  3 25  1  0  0  0  0
  3 26  1  0  0  0  0
  3 27  1  0  0  0  0
  4  5  2  0  0  0  0
  4  6  1  0  0  0  0
  6  7  1  0  0  0  0
  6 28  1  0  0  0  0
  7 21  2  0  0  0  0
  7  8  1  0  0  0  0
  8  9  2  0  0  0  0
  8 29  1  0  0  0  0
  9 10  1  0  0  0  0
  9 19  1  0  0  0  0
 10 11  2  0  0  0  0
 10 12  1  0  0  0  0
 12 13  1  0  0  0  0
 12 30  1  0  0  0  0
 13 18  2  0  0  0  0
 13 14  1  0  0  0  0
 14 15  2  0  0  0  0
 14 31  1  0  0  0  0
 15 16  1  0  0  0  0
 15 32  1  0  0  0  0
 16 17  2  0  0  0  0
 16 33  1  0  0  0  0
 17 18  1  0  0  0  0
 17 34  1  0  0  0  0
 18 35  1  0  0  0  0
 19 20  2  0  0  0  0
 19 36  1  0  0  0  0
 20 21  1  0  0  0  0
 20 37  1  0  0  0  0
M  END
$$$$
