ZINC000000050570      none
 OpenBabel11202420153D

 36 38  0  0  0  0  0  0  0  0999 V2000
   35.8762   31.0458   52.9853 C   0  0  0  0  0  0  0  0  0  0  0  0
   34.7177   31.8470   52.7450 O   0  0  0  0  0  0  0  0  0  0  0  0
   34.1667   32.4726   53.8187 C   0  0  0  0  0  0  0  0  0  0  0  0
   33.0398   33.2669   53.6535 C   0  0  0  0  0  0  0  0  0  0  0  0
   32.4771   33.9032   54.7393 C   0  0  0  0  0  0  0  0  0  0  0  0
   33.0425   33.7475   56.0078 C   0  0  0  0  0  0  0  0  0  0  0  0
   32.4879   34.3765   57.0877 N   0  0  0  0  0  0  0  0  0  0  0  0
   32.8855   35.5804   57.4204 C   0  0  0  0  0  0  0  0  0  0  0  0
   32.3128   36.2298   58.5356 C   0  0  0  0  0  0  0  0  0  0  0  0
   32.6358   37.4921   58.9951 C   0  0  0  0  0  0  0  0  0  0  0  0
   31.8258   37.7339   60.1090 C   0  0  0  0  0  0  0  0  0  0  0  0
   31.0545   36.6248   60.2946 C   0  0  0  0  0  0  0  0  0  0  0  0
   29.8591   36.4090   61.5710 S   0  0  0  0  0  0  0  0  0  0  0  0
   30.5781   37.4041   62.8350 C   0  0  0  0  0  0  0  0  0  0  0  0
   29.8715   38.4897   63.3436 C   0  0  0  0  0  0  0  0  0  0  0  0
   30.4456   39.2589   64.3392 C   0  0  0  0  0  0  0  0  0  0  0  0
   31.7162   38.9220   64.7877 C   0  0  0  0  0  0  0  0  0  0  0  0
   32.3600   37.8311   64.2385 C   0  0  0  0  0  0  0  0  0  0  0  0
   31.7861   37.1119   63.2928 N   0  0  0  0  0  0  0  0  0  0  0  0
   31.3512   35.7264   59.3418 O   0  0  0  0  0  0  0  0  0  0  0  0
   34.1799   32.9515   56.1679 C   0  0  0  0  0  0  0  0  0  0  0  0
   34.7318   32.3147   55.0770 C   0  0  0  0  0  0  0  0  0  0  0  0
   36.6688   31.6679   53.4010 H   0  0  0  0  0  0  0  0  0  0  0  0
   35.6291   30.2525   53.6908 H   0  0  0  0  0  0  0  0  0  0  0  0
   36.2144   30.6053   52.0473 H   0  0  0  0  0  0  0  0  0  0  0  0
   32.6038   33.3869   52.6727 H   0  0  0  0  0  0  0  0  0  0  0  0
   31.6009   34.5212   54.6097 H   0  0  0  0  0  0  0  0  0  0  0  0
   33.6511   36.0755   56.8416 H   0  0  0  0  0  0  0  0  0  0  0  0
   33.3691   38.1636   58.5734 H   0  0  0  0  0  0  0  0  0  0  0  0
   31.8147   38.6304   60.7111 H   0  0  0  0  0  0  0  0  0  0  0  0
   28.8866   38.7259   62.9687 H   0  0  0  0  0  0  0  0  0  0  0  0
   29.9195   40.1052   64.7556 H   0  0  0  0  0  0  0  0  0  0  0  0
   32.1939   39.5046   65.5615 H   0  0  0  0  0  0  0  0  0  0  0  0
   33.3463   37.5630   64.5873 H   0  0  0  0  0  0  0  0  0  0  0  0
   34.6231   32.8321   57.1456 H   0  0  0  0  0  0  0  0  0  0  0  0
   35.6085   31.6960   55.2005 H   0  0  0  0  0  0  0  0  0  0  0  0
  1  2  1  0  0  0  0
  1 23  1  0  0  0  0
  1 24  1  0  0  0  0
  1 25  1  0  0  0  0
  2  3  1  0  0  0  0
  3 22  2  0  0  0  0
  3  4  1  0  0  0  0
  4  5  2  0  0  0  0
  4 26  1  0  0  0  0
  5  6  1  0  0  0  0
  5 27  1  0  0  0  0
  6  7  1  0  0  0  0
  6 21  2  0  0  0  0
  7  8  2  0  0  0  0
  8  9  1  0  0  0  0
  8 28  1  0  0  0  0
  9 20  1  0  0  0  0
  9 10  2  0  0  0  0
 10 11  1  0  0  0  0
 10 29  1  0  0  0  0
 11 12  2  0  0  0  0
 11 30  1  0  0  0  0
 12 13  1  0  0  0  0
 12 20  1  0  0  0  0
 13 14  1  0  0  0  0
 14 19  2  0  0  0  0
 14 15  1  0  0  0  0
 15 16  2  0  0  0  0
 15 31  1  0  0  0  0
 16 17  1  0  0  0  0
 16 32  1  0  0  0  0
 17 18  2  0  0  0  0
 17 33  1  0  0  0  0
 18 19  1  0  0  0  0
 18 34  1  0  0  0  0
 21 22  1  0  0  0  0
 21 35  1  0  0  0  0
 22 36  1  0  0  0  0
M  END
$$$$
