ZINC000000052013      none
 OpenBabel11202420153D

 41 43  0  0  0  0  0  0  0  0999 V2000
   33.4203   39.8222   57.3351 C   0  0  0  0  0  0  0  0  0  0  0  0
   33.3395   38.5035   56.7905 O   0  0  0  0  0  0  0  0  0  0  0  0
   32.8690   37.5258   57.6089 C   0  0  0  0  0  0  0  0  0  0  0  0
   32.7636   36.2226   57.1451 C   0  0  0  0  0  0  0  0  0  0  0  0
   32.2845   35.2307   57.9788 C   0  0  0  0  0  0  0  0  0  0  0  0
   31.9098   35.5359   59.2742 C   0  0  0  0  0  0  0  0  0  0  0  0
   31.3871   34.4520   60.1813 C   0  0  0  0  0  0  0  0  0  0  0  0
   31.7296   34.7846   61.6106 C   0  0  0  0  0  0  0  0  0  0  0  0
   32.8893   34.9107   61.9429 O   0  0  0  0  0  0  0  0  0  0  0  0
   30.7473   34.9420   62.5199 N   0  0  0  0  0  0  0  0  0  0  0  0
   31.0628   35.2484   63.8364 C   0  0  0  0  0  0  0  0  0  0  0  0
   32.4280   36.1425   64.3212 S   0  0  0  0  0  0  0  0  0  0  0  0
   32.0080   36.0204   66.0219 C   0  0  0  0  0  0  0  0  0  0  0  0
   30.8748   35.3255   66.1822 C   0  0  0  0  0  0  0  0  0  0  0  0
   30.3170   34.8790   64.9195 C   0  0  0  0  0  0  0  0  0  0  0  0
   29.1057   34.1220   64.8188 C   0  0  0  0  0  0  0  0  0  0  0  0
   28.1447   33.5215   64.7389 N   0  0  0  0  0  0  0  0  0  0  0  0
   30.2472   35.0452   67.5384 C   0  0  0  0  0  0  0  0  0  0  0  0
   31.2970   35.2853   68.6257 C   0  0  0  0  0  0  0  0  0  0  0  0
   31.9354   36.6614   68.4137 C   0  0  0  0  0  0  0  0  0  0  0  0
   32.8135   36.6166   67.1600 C   0  0  0  0  0  0  0  0  0  0  0  0
   32.0086   36.8351   59.7370 C   0  0  0  0  0  0  0  0  0  0  0  0
   32.4928   37.8294   58.9092 C   0  0  0  0  0  0  0  0  0  0  0  0
   33.8105   40.5040   56.5795 H   0  0  0  0  0  0  0  0  0  0  0  0
   32.4271   40.1500   57.6420 H   0  0  0  0  0  0  0  0  0  0  0  0
   34.0848   39.8185   58.1991 H   0  0  0  0  0  0  0  0  0  0  0  0
   33.0554   35.9837   56.1330 H   0  0  0  0  0  0  0  0  0  0  0  0
   32.2022   34.2159   57.6183 H   0  0  0  0  0  0  0  0  0  0  0  0
   31.8436   33.5000   59.9104 H   0  0  0  0  0  0  0  0  0  0  0  0
   30.3048   34.3793   60.0745 H   0  0  0  0  0  0  0  0  0  0  0  0
   29.8198   34.8412   62.2543 H   0  0  0  0  0  0  0  0  0  0  0  0
   29.4002   35.7134   67.6942 H   0  0  0  0  0  0  0  0  0  0  0  0
   29.9081   34.0101   67.5771 H   0  0  0  0  0  0  0  0  0  0  0  0
   30.8206   35.2519   69.6056 H   0  0  0  0  0  0  0  0  0  0  0  0
   32.0653   34.5144   68.5669 H   0  0  0  0  0  0  0  0  0  0  0  0
   31.1537   37.4100   68.2849 H   0  0  0  0  0  0  0  0  0  0  0  0
   32.5475   36.9166   69.2787 H   0  0  0  0  0  0  0  0  0  0  0  0
   33.6910   35.9985   67.3498 H   0  0  0  0  0  0  0  0  0  0  0  0
   33.1256   37.6272   66.8967 H   0  0  0  0  0  0  0  0  0  0  0  0
   31.7108   37.0719   60.7478 H   0  0  0  0  0  0  0  0  0  0  0  0
   32.5736   38.8433   59.2724 H   0  0  0  0  0  0  0  0  0  0  0  0
  1  2  1  0  0  0  0
  1 24  1  0  0  0  0
  1 25  1  0  0  0  0
  1 26  1  0  0  0  0
  2  3  1  0  0  0  0
  3 23  2  0  0  0  0
  3  4  1  0  0  0  0
  4  5  2  0  0  0  0
  4 27  1  0  0  0  0
  5  6  1  0  0  0  0
  5 28  1  0  0  0  0
  6  7  1  0  0  0  0
  6 22  2  0  0  0  0
  7  8  1  0  0  0  0
  7 29  1  0  0  0  0
  7 30  1  0  0  0  0
  8  9  2  0  0  0  0
  8 10  1  0  0  0  0
 10 11  1  0  0  0  0
 10 31  1  0  0  0  0
 11 15  2  0  0  0  0
 11 12  1  0  0  0  0
 12 13  1  0  0  0  0
 13 21  1  0  0  0  0
 13 14  2  0  0  0  0
 14 15  1  0  0  0  0
 14 18  1  0  0  0  0
 15 16  1  0  0  0  0
 16 17  3  0  0  0  0
 18 19  1  0  0  0  0
 18 32  1  0  0  0  0
 18 33  1  0  0  0  0
 19 20  1  0  0  0  0
 19 34  1  0  0  0  0
 19 35  1  0  0  0  0
 20 21  1  0  0  0  0
 20 36  1  0  0  0  0
 20 37  1  0  0  0  0
 21 38  1  0  0  0  0
 21 39  1  0  0  0  0
 22 23  1  0  0  0  0
 22 40  1  0  0  0  0
 23 41  1  0  0  0  0
M  END
$$$$
