ZINC000000029760      none
 OpenBabel11202420163D

 35 36  0  0  1  0  0  0  0  0999 V2000
   31.3253   33.0987   60.6357 C   0  0  0  0  0  0  0  0  0  0  0  0
   31.0785   34.4562   61.2971 C   0  0  2  0  0  0  0  0  0  0  0  0
   30.0419   34.5164   61.6285 H   0  0  0  0  0  0  0  0  0  0  0  0
   31.3585   35.5737   60.2896 C   0  0  0  0  0  0  0  0  0  0  0  0
   31.0804   36.9307   60.9401 C   0  0  1  0  0  0  0  0  0  0  0  0
   31.2571   37.7253   60.2151 H   0  0  0  0  0  0  0  0  0  0  0  0
   29.6255   36.9830   61.4105 C   0  0  0  0  0  0  0  0  0  0  0  0
   32.0131   37.1176   62.1409 C   0  0  0  0  0  0  0  0  0  0  0  0
   31.8545   35.9710   63.0457 N   0  0  0  0  0  0  0  0  0  0  0  0
   31.5713   36.1593   64.3499 C   0  0  0  0  0  0  0  0  0  0  0  0
   31.4425   35.2021   65.0882 O   0  0  0  0  0  0  0  0  0  0  0  0
   31.4172   37.5286   64.8820 C   0  0  0  0  0  0  0  0  0  0  0  0
   32.5250   38.2133   65.3862 C   0  0  0  0  0  0  0  0  0  0  0  0
   32.3757   39.4906   65.8820 C   0  0  0  0  0  0  0  0  0  0  0  0
   31.1283   40.0962   65.8802 C   0  0  0  0  0  0  0  0  0  0  0  0
   30.9875   41.3487   66.3670 F   0  0  0  0  0  0  0  0  0  0  0  0
   30.0240   39.4189   65.3860 C   0  0  0  0  0  0  0  0  0  0  0  0
   30.1631   38.1431   64.8831 C   0  0  0  0  0  0  0  0  0  0  0  0
   32.0167   34.6152   62.5031 C   0  0  0  0  0  0  0  0  0  0  0  0
   32.3623   33.0385   60.3056 H   0  0  0  0  0  0  0  0  0  0  0  0
   31.1258   32.3032   61.3536 H   0  0  0  0  0  0  0  0  0  0  0  0
   30.6635   32.9874   59.7769 H   0  0  0  0  0  0  0  0  0  0  0  0
   30.7131   35.4487   59.4201 H   0  0  0  0  0  0  0  0  0  0  0  0
   32.4017   35.5277   59.9772 H   0  0  0  0  0  0  0  0  0  0  0  0
   29.4287   37.9486   61.8763 H   0  0  0  0  0  0  0  0  0  0  0  0
   28.9622   36.8500   60.5557 H   0  0  0  0  0  0  0  0  0  0  0  0
   29.4489   36.1876   62.1346 H   0  0  0  0  0  0  0  0  0  0  0  0
   31.7526   38.0364   62.6663 H   0  0  0  0  0  0  0  0  0  0  0  0
   33.0459   37.1713   61.7966 H   0  0  0  0  0  0  0  0  0  0  0  0
   33.4972   37.7427   65.3875 H   0  0  0  0  0  0  0  0  0  0  0  0
   33.2318   40.0210   66.2722 H   0  0  0  0  0  0  0  0  0  0  0  0
   29.0538   39.8933   65.3914 H   0  0  0  0  0  0  0  0  0  0  0  0
   29.3031   37.6181   64.4944 H   0  0  0  0  0  0  0  0  0  0  0  0
   33.0498   34.4690   62.1878 H   0  0  0  0  0  0  0  0  0  0  0  0
   31.7587   33.8823   63.2677 H   0  0  0  0  0  0  0  0  0  0  0  0
  1  2  1  0  0  0  0
  1 20  1  0  0  0  0
  1 21  1  0  0  0  0
  1 22  1  0  0  0  0
  2  3  1  1  0  0  0
  2 19  1  0  0  0  0
  2  4  1  0  0  0  0
  4  5  1  0  0  0  0
  4 23  1  0  0  0  0
  4 24  1  0  0  0  0
  5  6  1  6  0  0  0
  5  7  1  0  0  0  0
  5  8  1  0  0  0  0
  7 25  1  0  0  0  0
  7 26  1  0  0  0  0
  7 27  1  0  0  0  0
  8  9  1  0  0  0  0
  8 28  1  0  0  0  0
  8 29  1  0  0  0  0
  9 10  1  0  0  0  0
  9 19  1  0  0  0  0
 10 11  2  0  0  0  0
 10 12  1  0  0  0  0
 12 18  2  0  0  0  0
 12 13  1  0  0  0  0
 13 14  2  0  0  0  0
 13 30  1  0  0  0  0
 14 15  1  0  0  0  0
 14 31  1  0  0  0  0
 15 16  1  0  0  0  0
 15 17  2  0  0  0  0
 17 18  1  0  0  0  0
 17 32  1  0  0  0  0
 18 33  1  0  0  0  0
 19 34  1  0  0  0  0
 19 35  1  0  0  0  0
M  END
$$$$
