ZINC000000018650      none
 OpenBabel11202420153D

 27 28  0  0  0  0  0  0  0  0999 V2000
   33.7116   37.8041   56.0560 C   0  0  0  0  0  0  0  0  0  0  0  0
   33.2069   36.7833   57.0431 C   0  0  0  0  0  0  0  0  0  0  0  0
   33.0830   35.4558   56.6739 C   0  0  0  0  0  0  0  0  0  0  0  0
   32.6419   34.5501   57.5257 N   0  0  0  0  0  0  0  0  0  0  0  0
   32.3014   34.8624   58.7589 C   0  0  0  0  0  0  0  0  0  0  0  0
   32.3973   36.1801   59.2093 C   0  0  0  0  0  0  0  0  0  0  0  0
   32.0146   36.5307   60.5914 C   0  0  0  0  0  0  0  0  0  0  0  0
   32.1610   35.6414   61.4942 N   0  0  0  0  0  0  0  0  0  0  0  0
   31.8230   35.8155   62.9004 C   0  0  0  0  0  0  0  0  0  0  0  0
   31.6902   37.3013   63.2391 C   0  0  0  0  0  0  0  0  0  0  0  0
   30.7718   37.9561   62.1997 C   0  0  0  0  0  0  0  0  0  0  0  0
   31.4784   37.9102   60.8421 C   0  0  0  0  0  0  0  0  0  0  0  0
   32.8573   37.1651   58.3260 C   0  0  0  0  0  0  0  0  0  0  0  0
   32.8696   38.2266   55.5076 H   0  0  0  0  0  0  0  0  0  0  0  0
   34.2330   38.5988   56.5897 H   0  0  0  0  0  0  0  0  0  0  0  0
   34.3972   37.3254   55.3568 H   0  0  0  0  0  0  0  0  0  0  0  0
   33.3513   35.1560   55.6717 H   0  0  0  0  0  0  0  0  0  0  0  0
   31.9445   34.0928   59.4271 H   0  0  0  0  0  0  0  0  0  0  0  0
   30.8781   35.3134   63.1080 H   0  0  0  0  0  0  0  0  0  0  0  0
   32.6072   35.3750   63.5159 H   0  0  0  0  0  0  0  0  0  0  0  0
   31.2570   37.4138   64.2330 H   0  0  0  0  0  0  0  0  0  0  0  0
   32.6723   37.7735   63.2106 H   0  0  0  0  0  0  0  0  0  0  0  0
   30.5792   38.9919   62.4792 H   0  0  0  0  0  0  0  0  0  0  0  0
   29.8309   37.4086   62.1433 H   0  0  0  0  0  0  0  0  0  0  0  0
   32.3015   38.6249   60.8380 H   0  0  0  0  0  0  0  0  0  0  0  0
   30.7698   38.1716   60.0561 H   0  0  0  0  0  0  0  0  0  0  0  0
   32.9401   38.1951   58.6395 H   0  0  0  0  0  0  0  0  0  0  0  0
  1  2  1  0  0  0  0
  1 14  1  0  0  0  0
  1 15  1  0  0  0  0
  1 16  1  0  0  0  0
  2 13  2  0  0  0  0
  2  3  1  0  0  0  0
  3  4  2  0  0  0  0
  3 17  1  0  0  0  0
  4  5  1  0  0  0  0
  5  6  2  0  0  0  0
  5 18  1  0  0  0  0
  6  7  1  0  0  0  0
  6 13  1  0  0  0  0
  7 12  1  0  0  0  0
  7  8  2  0  0  0  0
  8  9  1  0  0  0  0
  9 10  1  0  0  0  0
  9 19  1  0  0  0  0
  9 20  1  0  0  0  0
 10 11  1  0  0  0  0
 10 21  1  0  0  0  0
 10 22  1  0  0  0  0
 11 12  1  0  0  0  0
 11 23  1  0  0  0  0
 11 24  1  0  0  0  0
 12 25  1  0  0  0  0
 12 26  1  0  0  0  0
 13 27  1  0  0  0  0
M  END
$$$$
