ZINC000000032537      none
 OpenBabel11202420153D

 26 28  0  0  0  0  0  0  0  0999 V2000
   32.9080   33.3549   56.6647 N   0  0  0  0  0  0  0  0  0  0  0  0
   33.3049   34.5392   56.1115 N   0  0  0  0  0  0  0  0  0  0  0  0
   33.1715   35.7193   56.8291 C   0  0  0  0  0  0  0  0  0  0  0  0
   32.6610   35.6951   58.0309 N   0  0  0  0  0  0  0  0  0  0  0  0
   32.5017   36.8467   58.8012 N   0  0  0  0  0  0  0  0  0  0  0  0
   32.0094   37.0642   60.0434 C   0  0  0  0  0  0  0  0  0  0  0  0
   31.4641   36.0171   60.9800 C   0  0  0  0  0  0  0  0  0  0  0  0
   31.5407   34.7605   60.3700 F   0  0  0  0  0  0  0  0  0  0  0  0
   32.2163   36.0094   62.1596 F   0  0  0  0  0  0  0  0  0  0  0  0
   30.1294   36.3093   61.2800 F   0  0  0  0  0  0  0  0  0  0  0  0
   32.0928   38.3479   60.2845 N   0  0  0  0  0  0  0  0  0  0  0  0
   32.6068   38.9550   59.2726 N   0  0  0  0  0  0  0  0  0  0  0  0
   32.8781   38.0768   58.3289 C   0  0  0  0  0  0  0  0  0  0  0  0
   33.4584   38.1759   56.9863 C   0  0  0  0  0  0  0  0  0  0  0  0
   33.8623   39.3947   56.4435 C   0  0  0  0  0  0  0  0  0  0  0  0
   34.4178   39.4275   55.1835 C   0  0  0  0  0  0  0  0  0  0  0  0
   34.5629   38.2614   54.4434 C   0  0  0  0  0  0  0  0  0  0  0  0
   34.1651   37.0475   54.9578 C   0  0  0  0  0  0  0  0  0  0  0  0
   33.6106   36.9885   56.2363 C   0  0  0  0  0  0  0  0  0  0  0  0
   33.0696   32.5873   56.0300 H   0  0  0  0  0  0  0  0  0  0  0  0
   33.3680   33.1965   57.5485 H   0  0  0  0  0  0  0  0  0  0  0  0
   33.6838   34.5546   55.2187 H   0  0  0  0  0  0  0  0  0  0  0  0
   33.7535   40.3058   57.0131 H   0  0  0  0  0  0  0  0  0  0  0  0
   34.7353   40.3704   54.7633 H   0  0  0  0  0  0  0  0  0  0  0  0
   34.9922   38.3071   53.4534 H   0  0  0  0  0  0  0  0  0  0  0  0
   34.2813   36.1462   54.3743 H   0  0  0  0  0  0  0  0  0  0  0  0
  1  2  1  0  0  0  0
  1 20  1  0  0  0  0
  1 21  1  0  0  0  0
  2  3  1  0  0  0  0
  2 22  1  0  0  0  0
  3 19  1  0  0  0  0
  3  4  2  0  0  0  0
  4  5  1  0  0  0  0
  5 13  1  0  0  0  0
  5  6  1  0  0  0  0
  6  7  1  0  0  0  0
  6 11  2  0  0  0  0
  7  8  1  0  0  0  0
  7  9  1  0  0  0  0
  7 10  1  0  0  0  0
 11 12  1  0  0  0  0
 12 13  2  0  0  0  0
 13 14  1  0  0  0  0
 14 19  2  0  0  0  0
 14 15  1  0  0  0  0
 15 16  2  0  0  0  0
 15 23  1  0  0  0  0
 16 17  1  0  0  0  0
 16 24  1  0  0  0  0
 17 18  2  0  0  0  0
 17 25  1  0  0  0  0
 18 19  1  0  0  0  0
 18 26  1  0  0  0  0
M  END
$$$$
