ZINC000000044630      none
 OpenBabel11202420153D

 42 45  0  0  0  0  0  0  0  0999 V2000
   29.8344   35.1923   63.8404 O   0  0  0  0  0  0  0  0  0  0  0  0
   30.3346   36.0480   63.1414 C   0  0  0  0  0  0  0  0  0  0  0  0
   29.5567   36.6295   61.9892 C   0  0  0  0  0  0  0  0  0  0  0  0
   30.4836   37.0373   60.9305 N   0  0  0  0  0  0  0  0  0  0  0  0
   30.8875   36.2412   59.9241 C   0  0  0  0  0  0  0  0  0  0  0  0
   30.5498   35.0871   59.7540 O   0  0  0  0  0  0  0  0  0  0  0  0
   31.8178   37.0036   59.0649 C   0  0  0  0  0  0  0  0  0  0  0  0
   32.5327   36.7109   57.9146 C   0  0  0  0  0  0  0  0  0  0  0  0
   33.3341   37.6836   57.3375 C   0  0  0  0  0  0  0  0  0  0  0  0
   33.4251   38.9421   57.9019 C   0  0  0  0  0  0  0  0  0  0  0  0
   32.7160   39.2490   59.0528 C   0  0  0  0  0  0  0  0  0  0  0  0
   31.9107   38.2868   59.6405 C   0  0  0  0  0  0  0  0  0  0  0  0
   31.0381   38.2590   60.8333 C   0  0  0  0  0  0  0  0  0  0  0  0
   30.8532   39.1844   61.5980 O   0  0  0  0  0  0  0  0  0  0  0  0
   31.5861   36.4788   63.3953 N   0  0  0  0  0  0  0  0  0  0  0  0
   32.3424   35.9135   64.5155 C   0  0  0  0  0  0  0  0  0  0  0  0
   32.7068   37.0275   65.4988 C   0  0  0  0  0  0  0  0  0  0  0  0
   31.4470   37.6717   66.0174 C   0  0  0  0  0  0  0  0  0  0  0  0
   31.2544   38.9542   66.1225 N   0  0  0  0  0  0  0  0  0  0  0  0
   30.0145   39.1901   66.6234 C   0  0  0  0  0  0  0  0  0  0  0  0
   29.3052   40.3538   66.9325 C   0  0  0  0  0  0  0  0  0  0  0  0
   28.0389   40.2653   67.4368 C   0  0  0  0  0  0  0  0  0  0  0  0
   27.4451   39.0287   67.6465 C   0  0  0  0  0  0  0  0  0  0  0  0
   28.1256   37.8674   67.3485 C   0  0  0  0  0  0  0  0  0  0  0  0
   29.4140   37.9377   66.8359 C   0  0  0  0  0  0  0  0  0  0  0  0
   30.3431   36.9973   66.4383 N   0  0  0  0  0  0  0  0  0  0  0  0
   30.2305   36.0340   66.4573 H   0  0  0  0  0  0  0  0  0  0  0  0
   28.9929   37.4970   62.3325 H   0  0  0  0  0  0  0  0  0  0  0  0
   28.8681   35.8794   61.6003 H   0  0  0  0  0  0  0  0  0  0  0  0
   32.4656   35.7292   57.4693 H   0  0  0  0  0  0  0  0  0  0  0  0
   33.8914   37.4565   56.4406 H   0  0  0  0  0  0  0  0  0  0  0  0
   34.0529   39.6916   57.4430 H   0  0  0  0  0  0  0  0  0  0  0  0
   32.7912   40.2338   59.4896 H   0  0  0  0  0  0  0  0  0  0  0  0
   31.9862   37.1631   62.8364 H   0  0  0  0  0  0  0  0  0  0  0  0
   31.7343   35.1649   65.0235 H   0  0  0  0  0  0  0  0  0  0  0  0
   33.2537   35.4476   64.1403 H   0  0  0  0  0  0  0  0  0  0  0  0
   33.2695   36.6069   66.3321 H   0  0  0  0  0  0  0  0  0  0  0  0
   33.3149   37.7760   64.9907 H   0  0  0  0  0  0  0  0  0  0  0  0
   29.7575   41.3214   66.7726 H   0  0  0  0  0  0  0  0  0  0  0  0
   27.4939   41.1670   67.6744 H   0  0  0  0  0  0  0  0  0  0  0  0
   26.4430   38.9756   68.0456 H   0  0  0  0  0  0  0  0  0  0  0  0
   27.6590   36.9076   67.5132 H   0  0  0  0  0  0  0  0  0  0  0  0
  1  2  2  0  0  0  0
  2  3  1  0  0  0  0
  2 15  1  0  0  0  0
  3  4  1  0  0  0  0
  3 28  1  0  0  0  0
  3 29  1  0  0  0  0
  4 13  1  0  0  0  0
  4  5  1  0  0  0  0
  5  6  2  0  0  0  0
  5  7  1  0  0  0  0
  7 12  2  0  0  0  0
  7  8  1  0  0  0  0
  8  9  2  0  0  0  0
  8 30  1  0  0  0  0
  9 10  1  0  0  0  0
  9 31  1  0  0  0  0
 10 11  2  0  0  0  0
 10 32  1  0  0  0  0
 11 12  1  0  0  0  0
 11 33  1  0  0  0  0
 12 13  1  0  0  0  0
 13 14  2  0  0  0  0
 15 16  1  0  0  0  0
 15 34  1  0  0  0  0
 16 17  1  0  0  0  0
 16 35  1  0  0  0  0
 16 36  1  0  0  0  0
 17 18  1  0  0  0  0
 17 37  1  0  0  0  0
 17 38  1  0  0  0  0
 18 26  1  0  0  0  0
 18 19  2  0  0  0  0
 19 20  1  0  0  0  0
 20 25  2  0  0  0  0
 20 21  1  0  0  0  0
 21 22  2  0  0  0  0
 21 39  1  0  0  0  0
 22 23  1  0  0  0  0
 22 40  1  0  0  0  0
 23 24  2  0  0  0  0
 23 41  1  0  0  0  0
 24 25  1  0  0  0  0
 24 42  1  0  0  0  0
 25 26  1  0  0  0  0
 26 27  1  0  0  0  0
M  END
$$$$
