ZINC000000050252      none
 OpenBabel11202420153D

 30 31  0  0  0  0  0  0  0  0999 V2000
   33.6775   39.7308   56.4392 C   0  0  0  0  0  0  0  0  0  0  0  0
   33.2247   38.6997   57.4407 C   0  0  0  0  0  0  0  0  0  0  0  0
   33.0711   39.0477   58.7696 C   0  0  0  0  0  0  0  0  0  0  0  0
   32.6558   38.1019   59.6883 C   0  0  0  0  0  0  0  0  0  0  0  0
   32.3941   36.8081   59.2779 C   0  0  0  0  0  0  0  0  0  0  0  0
   31.8652   35.6023   60.4488 S   0  0  0  0  0  0  0  0  0  0  0  0
   32.2068   34.3357   59.9027 O   0  0  0  0  0  0  0  0  0  0  0  0
   32.3202   36.0496   61.7185 O   0  0  0  0  0  0  0  0  0  0  0  0
   30.2109   35.6595   60.4981 N   0  0  0  0  0  0  0  0  0  0  0  0
   29.5366   36.5547   61.4416 C   0  0  0  0  0  0  0  0  0  0  0  0
   29.9303   36.1894   62.8497 C   0  0  0  0  0  0  0  0  0  0  0  0
   29.9938   34.9929   63.3364 N   0  0  0  0  0  0  0  0  0  0  0  0
   30.3429   34.8622   64.5409 N   0  0  0  0  0  0  0  0  0  0  0  0
   30.6156   35.9449   65.2114 C   0  0  0  0  0  0  0  0  0  0  0  0
   31.0143   36.0072   66.5385 N   0  0  0  0  0  0  0  0  0  0  0  0
   30.3940   37.3179   64.1247 S   0  0  0  0  0  0  0  0  0  0  0  0
   32.5527   36.4588   57.9498 C   0  0  0  0  0  0  0  0  0  0  0  0
   32.9625   37.4060   57.0302 C   0  0  0  0  0  0  0  0  0  0  0  0
   34.7657   39.7243   56.3777 H   0  0  0  0  0  0  0  0  0  0  0  0
   33.2569   39.4968   55.4613 H   0  0  0  0  0  0  0  0  0  0  0  0
   33.3374   40.7173   56.7544 H   0  0  0  0  0  0  0  0  0  0  0  0
   33.2761   40.0584   59.0904 H   0  0  0  0  0  0  0  0  0  0  0  0
   32.5363   38.3736   60.7266 H   0  0  0  0  0  0  0  0  0  0  0  0
   29.6883   35.1003   59.9022 H   0  0  0  0  0  0  0  0  0  0  0  0
   29.8298   37.5847   61.2380 H   0  0  0  0  0  0  0  0  0  0  0  0
   28.4572   36.4551   61.3287 H   0  0  0  0  0  0  0  0  0  0  0  0
   31.1126   35.1916   67.0542 H   0  0  0  0  0  0  0  0  0  0  0  0
   31.1948   36.8666   66.9508 H   0  0  0  0  0  0  0  0  0  0  0  0
   32.3524   35.4469   57.6299 H   0  0  0  0  0  0  0  0  0  0  0  0
   33.0821   37.1343   55.9918 H   0  0  0  0  0  0  0  0  0  0  0  0
  1  2  1  0  0  0  0
  1 19  1  0  0  0  0
  1 20  1  0  0  0  0
  1 21  1  0  0  0  0
  2 18  2  0  0  0  0
  2  3  1  0  0  0  0
  3  4  2  0  0  0  0
  3 22  1  0  0  0  0
  4  5  1  0  0  0  0
  4 23  1  0  0  0  0
  5  6  1  0  0  0  0
  5 17  2  0  0  0  0
  6  7  2  0  0  0  0
  6  8  2  0  0  0  0
  6  9  1  0  0  0  0
  9 10  1  0  0  0  0
  9 24  1  0  0  0  0
 10 11  1  0  0  0  0
 10 25  1  0  0  0  0
 10 26  1  0  0  0  0
 11 16  1  0  0  0  0
 11 12  2  0  0  0  0
 12 13  1  0  0  0  0
 13 14  2  0  0  0  0
 14 15  1  0  0  0  0
 14 16  1  0  0  0  0
 15 27  1  0  0  0  0
 15 28  1  0  0  0  0
 17 18  1  0  0  0  0
 17 29  1  0  0  0  0
 18 30  1  0  0  0  0
M  END
$$$$
