ZINC000000035300      none
 OpenBabel11202420153D

 33 35  0  0  1  0  0  0  0  0999 V2000
   28.9032   35.1006   64.5659 C   0  0  0  0  0  0  0  0  0  0  0  0
   29.2344   35.8293   63.3821 O   0  0  0  0  0  0  0  0  0  0  0  0
   30.6350   35.8789   63.1030 C   0  0  1  0  0  0  0  0  0  0  0  0
   31.3276   36.8638   64.0093 C   0  0  0  0  0  0  0  0  0  0  0  0
   30.6442   37.9698   64.4789 C   0  0  0  0  0  0  0  0  0  0  0  0
   31.2779   38.8708   65.3140 C   0  0  0  0  0  0  0  0  0  0  0  0
   32.5984   38.6712   65.6712 C   0  0  0  0  0  0  0  0  0  0  0  0
   33.2789   39.6390   66.5606 N   0  0  0  0  0  0  0  0  0  0  0  0
   32.6756   40.6115   66.9777 O   0  0  0  0  0  0  0  0  0  0  0  0
   34.4424   39.4631   66.8753 O   0  0  0  0  0  0  0  0  0  0  0  0
   33.2834   37.5679   65.1973 C   0  0  0  0  0  0  0  0  0  0  0  0
   32.6480   36.6643   64.3665 C   0  0  0  0  0  0  0  0  0  0  0  0
   31.2728   34.4745   63.2222 C   0  0  0  0  0  0  0  0  0  0  0  0
   32.2531   34.4797   62.1706 O   0  0  0  0  0  0  0  0  0  0  0  0
   31.8501   35.3270   61.1844 C   0  0  0  0  0  0  0  0  0  0  0  0
   32.2593   35.4096   59.8554 C   0  0  0  0  0  0  0  0  0  0  0  0
   31.7176   36.3640   59.0198 C   0  0  0  0  0  0  0  0  0  0  0  0
   30.7632   37.2461   59.4925 C   0  0  0  0  0  0  0  0  0  0  0  0
   30.3481   37.1678   60.8099 C   0  0  0  0  0  0  0  0  0  0  0  0
   30.8856   36.2136   61.6453 C   0  0  0  0  0  0  0  0  0  0  0  0
   29.3018   35.6212   65.4367 H   0  0  0  0  0  0  0  0  0  0  0  0
   27.8195   35.0232   64.6537 H   0  0  0  0  0  0  0  0  0  0  0  0
   29.3355   34.1015   64.5104 H   0  0  0  0  0  0  0  0  0  0  0  0
   29.6137   38.1281   64.1962 H   0  0  0  0  0  0  0  0  0  0  0  0
   30.7429   39.7329   65.6840 H   0  0  0  0  0  0  0  0  0  0  0  0
   34.3150   37.4122   65.4761 H   0  0  0  0  0  0  0  0  0  0  0  0
   33.1832   35.8025   63.9960 H   0  0  0  0  0  0  0  0  0  0  0  0
   30.5284   33.6967   63.0523 H   0  0  0  0  0  0  0  0  0  0  0  0
   31.7497   34.3483   64.1941 H   0  0  0  0  0  0  0  0  0  0  0  0
   33.0039   34.7243   59.4782 H   0  0  0  0  0  0  0  0  0  0  0  0
   32.0403   36.4224   57.9908 H   0  0  0  0  0  0  0  0  0  0  0  0
   30.3432   37.9933   58.8354 H   0  0  0  0  0  0  0  0  0  0  0  0
   29.6032   37.8548   61.1833 H   0  0  0  0  0  0  0  0  0  0  0  0
  1  2  1  0  0  0  0
  1 21  1  0  0  0  0
  1 22  1  0  0  0  0
  1 23  1  0  0  0  0
  3  2  1  1  0  0  0
  3 20  1  0  0  0  0
  3  4  1  0  0  0  0
  3 13  1  0  0  0  0
  4 12  2  0  0  0  0
  4  5  1  0  0  0  0
  5  6  2  0  0  0  0
  5 24  1  0  0  0  0
  6  7  1  0  0  0  0
  6 25  1  0  0  0  0
  7  8  1  0  0  0  0
  7 11  2  0  0  0  0
  8  9  2  0  0  0  0
  8 10  2  0  0  0  0
 11 12  1  0  0  0  0
 11 26  1  0  0  0  0
 12 27  1  0  0  0  0
 13 14  1  0  0  0  0
 13 28  1  0  0  0  0
 13 29  1  0  0  0  0
 14 15  1  0  0  0  0
 15 20  2  0  0  0  0
 15 16  1  0  0  0  0
 16 17  2  0  0  0  0
 16 30  1  0  0  0  0
 17 18  1  0  0  0  0
 17 31  1  0  0  0  0
 18 19  2  0  0  0  0
 18 32  1  0  0  0  0
 19 20  1  0  0  0  0
 19 33  1  0  0  0  0
M  END
$$$$
