ZINC000000034242      none
 OpenBabel11202420153D

 37 38  0  0  0  0  0  0  0  0999 V2000
   28.8410   34.3544   65.0531 C   0  0  0  0  0  0  0  0  0  0  0  0
   29.7209   33.5337   64.1081 C   0  0  0  0  0  0  0  0  0  0  0  0
   30.0712   34.3387   62.9516 O   0  0  0  0  0  0  0  0  0  0  0  0
   31.1946   35.0687   63.0348 C   0  0  0  0  0  0  0  0  0  0  0  0
   31.8631   35.0361   64.0408 O   0  0  0  0  0  0  0  0  0  0  0  0
   31.6220   35.9288   61.8736 C   0  0  0  0  0  0  0  0  0  0  0  0
   31.8839   34.8882   60.4160 S   0  0  0  0  0  0  0  0  0  0  0  0
   32.3614   36.1156   59.2456 C   0  0  0  0  0  0  0  0  0  0  0  0
   32.4595   37.3969   59.4952 N   0  0  0  0  0  0  0  0  0  0  0  0
   32.8511   38.0561   58.3721 C   0  0  0  0  0  0  0  0  0  0  0  0
   33.1019   39.4010   58.0896 C   0  0  0  0  0  0  0  0  0  0  0  0
   33.4954   39.7723   56.8229 C   0  0  0  0  0  0  0  0  0  0  0  0
   33.6444   38.8209   55.8254 C   0  0  0  0  0  0  0  0  0  0  0  0
   33.3997   37.4881   56.0891 C   0  0  0  0  0  0  0  0  0  0  0  0
   33.0033   37.0975   57.3578 C   0  0  0  0  0  0  0  0  0  0  0  0
   32.6876   35.8721   57.9334 N   0  0  0  0  0  0  0  0  0  0  0  0
   32.6986   34.6722   57.3198 C   0  0  0  0  0  0  0  0  0  0  0  0
   31.9366   33.7982   57.6815 O   0  0  0  0  0  0  0  0  0  0  0  0
   33.5537   34.4424   56.3063 O   0  0  0  0  0  0  0  0  0  0  0  0
   34.0146   33.0769   56.1295 C   0  0  0  0  0  0  0  0  0  0  0  0
   34.3088   32.8256   54.6493 C   0  0  0  0  0  0  0  0  0  0  0  0
   28.5779   33.7501   65.9213 H   0  0  0  0  0  0  0  0  0  0  0  0
   29.3856   35.2406   65.3789 H   0  0  0  0  0  0  0  0  0  0  0  0
   27.9325   34.6571   64.5324 H   0  0  0  0  0  0  0  0  0  0  0  0
   29.1764   32.6474   63.7824 H   0  0  0  0  0  0  0  0  0  0  0  0
   30.6295   33.2309   64.6288 H   0  0  0  0  0  0  0  0  0  0  0  0
   32.5499   36.4429   62.1244 H   0  0  0  0  0  0  0  0  0  0  0  0
   30.8457   36.6636   61.6606 H   0  0  0  0  0  0  0  0  0  0  0  0
   32.9921   40.1467   58.8632 H   0  0  0  0  0  0  0  0  0  0  0  0
   33.6895   40.8122   56.6052 H   0  0  0  0  0  0  0  0  0  0  0  0
   33.9534   39.1243   54.8360 H   0  0  0  0  0  0  0  0  0  0  0  0
   33.5175   36.7514   55.3083 H   0  0  0  0  0  0  0  0  0  0  0  0
   34.9229   32.9217   56.7118 H   0  0  0  0  0  0  0  0  0  0  0  0
   33.2430   32.3861   56.4691 H   0  0  0  0  0  0  0  0  0  0  0  0
   35.0806   33.5164   54.3097 H   0  0  0  0  0  0  0  0  0  0  0  0
   34.6549   31.8005   54.5165 H   0  0  0  0  0  0  0  0  0  0  0  0
   33.4005   32.9808   54.0669 H   0  0  0  0  0  0  0  0  0  0  0  0
  1  2  1  0  0  0  0
  1 22  1  0  0  0  0
  1 23  1  0  0  0  0
  1 24  1  0  0  0  0
  2  3  1  0  0  0  0
  2 25  1  0  0  0  0
  2 26  1  0  0  0  0
  3  4  1  0  0  0  0
  4  5  2  0  0  0  0
  4  6  1  0  0  0  0
  6  7  1  0  0  0  0
  6 27  1  0  0  0  0
  6 28  1  0  0  0  0
  7  8  1  0  0  0  0
  8 16  1  0  0  0  0
  8  9  2  0  0  0  0
  9 10  1  0  0  0  0
 10 15  2  0  0  0  0
 10 11  1  0  0  0  0
 11 12  2  0  0  0  0
 11 29  1  0  0  0  0
 12 13  1  0  0  0  0
 12 30  1  0  0  0  0
 13 14  2  0  0  0  0
 13 31  1  0  0  0  0
 14 15  1  0  0  0  0
 14 32  1  0  0  0  0
 15 16  1  0  0  0  0
 16 17  1  0  0  0  0
 17 18  2  0  0  0  0
 17 19  1  0  0  0  0
 19 20  1  0  0  0  0
 20 21  1  0  0  0  0
 20 33  1  0  0  0  0
 20 34  1  0  0  0  0
 21 35  1  0  0  0  0
 21 36  1  0  0  0  0
 21 37  1  0  0  0  0
M  END
$$$$
