ZINC000000034661      none
 OpenBabel11202420153D

 43 45  0  0  1  0  0  0  0  0999 V2000
   32.6236   34.9909   63.0752 S   0  0  0  0  0  0  0  0  0  0  0  0
   31.0119   35.1819   62.5306 C   0  0  0  0  0  0  0  0  0  0  0  0
   30.6700   34.7915   61.2868 N   0  0  0  0  0  0  0  0  0  0  0  0
   31.6777   34.2037   60.4007 C   0  0  0  0  0  0  0  0  0  0  0  0
   31.8122   35.0619   59.1412 C   0  0  2  0  0  0  0  0  0  0  0  0
   30.8549   35.1045   58.6215 H   0  0  0  0  0  0  0  0  0  0  0  0
   32.8773   34.4589   58.2152 C   0  0  0  0  0  0  0  0  0  0  0  0
   32.9869   35.2917   57.0558 O   0  0  0  0  0  0  0  0  0  0  0  0
   33.0578   36.6338   57.2711 C   0  0  0  0  0  0  0  0  0  0  0  0
   33.5179   37.4624   56.2583 C   0  0  0  0  0  0  0  0  0  0  0  0
   33.5913   38.8276   56.4603 C   0  0  0  0  0  0  0  0  0  0  0  0
   33.2080   39.3710   57.6724 C   0  0  0  0  0  0  0  0  0  0  0  0
   32.7504   38.5509   58.6862 C   0  0  0  0  0  0  0  0  0  0  0  0
   32.6744   37.1799   58.4901 C   0  0  0  0  0  0  0  0  0  0  0  0
   32.2272   36.3844   59.4998 O   0  0  0  0  0  0  0  0  0  0  0  0
   30.0847   35.7227   63.3459 N   0  0  0  0  0  0  0  0  0  0  0  0
   30.4562   36.1469   64.6980 C   0  0  0  0  0  0  0  0  0  0  0  0
   29.2479   36.0081   65.6261 C   0  0  0  0  0  0  0  0  0  0  0  0
   29.6359   36.4512   67.0382 C   0  0  0  0  0  0  0  0  0  0  0  0
   30.0902   37.9119   67.0077 C   0  0  0  0  0  0  0  0  0  0  0  0
   31.2986   38.0507   66.0794 C   0  0  0  0  0  0  0  0  0  0  0  0
   30.9106   37.6076   64.6673 C   0  0  0  0  0  0  0  0  0  0  0  0
   29.7568   34.8997   60.9782 H   0  0  0  0  0  0  0  0  0  0  0  0
   32.6368   34.1637   60.9171 H   0  0  0  0  0  0  0  0  0  0  0  0
   31.3728   33.1949   60.1222 H   0  0  0  0  0  0  0  0  0  0  0  0
   33.8358   34.4215   58.7329 H   0  0  0  0  0  0  0  0  0  0  0  0
   32.5797   33.4532   57.9186 H   0  0  0  0  0  0  0  0  0  0  0  0
   33.8181   37.0404   55.3106 H   0  0  0  0  0  0  0  0  0  0  0  0
   33.9494   39.4710   55.6704 H   0  0  0  0  0  0  0  0  0  0  0  0
   33.2660   40.4383   57.8272 H   0  0  0  0  0  0  0  0  0  0  0  0
   32.4513   38.9778   59.6321 H   0  0  0  0  0  0  0  0  0  0  0  0
   29.1715   35.8310   63.0373 H   0  0  0  0  0  0  0  0  0  0  0  0
   31.2698   35.5211   65.0645 H   0  0  0  0  0  0  0  0  0  0  0  0
   28.9241   34.9675   65.6479 H   0  0  0  0  0  0  0  0  0  0  0  0
   28.4343   36.6340   65.2596 H   0  0  0  0  0  0  0  0  0  0  0  0
   28.7751   36.3522   67.6995 H   0  0  0  0  0  0  0  0  0  0  0  0
   30.4495   35.8253   67.4048 H   0  0  0  0  0  0  0  0  0  0  0  0
   29.2768   38.5379   66.6411 H   0  0  0  0  0  0  0  0  0  0  0  0
   30.3667   38.2275   68.0136 H   0  0  0  0  0  0  0  0  0  0  0  0
   32.1122   37.4247   66.4459 H   0  0  0  0  0  0  0  0  0  0  0  0
   31.6223   39.0913   66.0576 H   0  0  0  0  0  0  0  0  0  0  0  0
   31.7715   37.7066   64.0061 H   0  0  0  0  0  0  0  0  0  0  0  0
   30.0970   38.2336   64.3008 H   0  0  0  0  0  0  0  0  0  0  0  0
  1  2  2  0  0  0  0
  2  3  1  0  0  0  0
  2 16  1  0  0  0  0
  3  4  1  0  0  0  0
  3 23  1  0  0  0  0
  4  5  1  0  0  0  0
  4 24  1  0  0  0  0
  4 25  1  0  0  0  0
  5  6  1  6  0  0  0
  5 15  1  0  0  0  0
  5  7  1  0  0  0  0
  7  8  1  0  0  0  0
  7 26  1  0  0  0  0
  7 27  1  0  0  0  0
  8  9  1  0  0  0  0
  9 14  2  0  0  0  0
  9 10  1  0  0  0  0
 10 11  2  0  0  0  0
 10 28  1  0  0  0  0
 11 12  1  0  0  0  0
 11 29  1  0  0  0  0
 12 13  2  0  0  0  0
 12 30  1  0  0  0  0
 13 14  1  0  0  0  0
 13 31  1  0  0  0  0
 14 15  1  0  0  0  0
 16 17  1  0  0  0  0
 16 32  1  0  0  0  0
 17 22  1  0  0  0  0
 17 18  1  0  0  0  0
 17 33  1  0  0  0  0
 18 19  1  0  0  0  0
 18 34  1  0  0  0  0
 18 35  1  0  0  0  0
 19 20  1  0  0  0  0
 19 36  1  0  0  0  0
 19 37  1  0  0  0  0
 20 21  1  0  0  0  0
 20 38  1  0  0  0  0
 20 39  1  0  0  0  0
 21 22  1  0  0  0  0
 21 40  1  0  0  0  0
 21 41  1  0  0  0  0
 22 42  1  0  0  0  0
 22 43  1  0  0  0  0
M  END
$$$$
