ZINC000000012331      none
 OpenBabel11202420153D

 30 31  0  0  1  0  0  0  0  0999 V2000
   32.5306   35.4528   62.8210 O   0  0  0  0  0  0  0  0  0  0  0  0
   31.7987   36.3911   63.0674 C   0  0  0  0  0  0  0  0  0  0  0  0
   32.0680   37.2981   64.0132 O   0  0  0  0  0  0  0  0  0  0  0  0
   30.9984   38.2864   64.0570 C   0  0  0  0  0  0  0  0  0  0  0  0
   30.0200   37.8260   62.9591 C   0  0  0  0  0  0  0  0  0  0  0  0
   30.6482   36.6116   62.4168 N   0  0  0  0  0  0  0  0  0  0  0  0
   30.1074   35.7821   61.3372 C   0  0  0  0  0  0  0  0  0  0  0  0
   30.6216   36.2974   59.9915 C   0  0  1  0  0  0  0  0  0  0  0  0
   30.2192   35.6801   59.1883 H   0  0  0  0  0  0  0  0  0  0  0  0
   30.2019   37.6511   59.8079 O   0  0  0  0  0  0  0  0  0  0  0  0
   32.1499   36.2300   59.9698 C   0  0  0  0  0  0  0  0  0  0  0  0
   32.6202   36.2545   58.5826 N   0  0  0  0  0  0  0  0  0  0  0  0
   32.8351   35.1679   57.7784 C   0  0  0  0  0  0  0  0  0  0  0  0
   33.2560   35.6401   56.5895 C   0  0  0  0  0  0  0  0  0  0  0  0
   33.3022   36.9783   56.6674 N   0  0  0  0  0  0  0  0  0  0  0  0
   32.9258   37.3533   57.8593 C   0  0  0  0  0  0  0  0  0  0  0  0
   32.8420   38.7517   58.3375 N   0  0  0  0  0  0  0  0  0  0  0  0
   33.0151   39.0035   59.5166 O   0  0  0  0  0  0  0  0  0  0  0  0
   32.6002   39.6506   57.5519 O   0  0  0  0  0  0  0  0  0  0  0  0
   30.5128   38.2811   65.0329 H   0  0  0  0  0  0  0  0  0  0  0  0
   31.3862   39.2794   63.8297 H   0  0  0  0  0  0  0  0  0  0  0  0
   29.9255   38.5870   62.1844 H   0  0  0  0  0  0  0  0  0  0  0  0
   29.0459   37.5937   63.3897 H   0  0  0  0  0  0  0  0  0  0  0  0
   29.0186   35.8303   61.3526 H   0  0  0  0  0  0  0  0  0  0  0  0
   30.4274   34.7496   61.4773 H   0  0  0  0  0  0  0  0  0  0  0  0
   30.5241   38.2583   60.4880 H   0  0  0  0  0  0  0  0  0  0  0  0
   32.4798   35.3081   60.4490 H   0  0  0  0  0  0  0  0  0  0  0  0
   32.5590   37.0854   60.5074 H   0  0  0  0  0  0  0  0  0  0  0  0
   32.6903   34.1312   58.0446 H   0  0  0  0  0  0  0  0  0  0  0  0
   33.5113   35.0456   55.7248 H   0  0  0  0  0  0  0  0  0  0  0  0
  1  2  2  0  0  0  0
  2  6  1  0  0  0  0
  2  3  1  0  0  0  0
  3  4  1  0  0  0  0
  4  5  1  0  0  0  0
  4 20  1  0  0  0  0
  4 21  1  0  0  0  0
  5  6  1  0  0  0  0
  5 22  1  0  0  0  0
  5 23  1  0  0  0  0
  6  7  1  0  0  0  0
  7  8  1  0  0  0  0
  7 24  1  0  0  0  0
  7 25  1  0  0  0  0
  8  9  1  6  0  0  0
  8 10  1  0  0  0  0
  8 11  1  0  0  0  0
 10 26  1  0  0  0  0
 11 12  1  0  0  0  0
 11 27  1  0  0  0  0
 11 28  1  0  0  0  0
 12 16  1  0  0  0  0
 12 13  1  0  0  0  0
 13 14  2  0  0  0  0
 13 29  1  0  0  0  0
 14 15  1  0  0  0  0
 14 30  1  0  0  0  0
 15 16  2  0  0  0  0
 16 17  1  0  0  0  0
 17 18  2  0  0  0  0
 17 19  2  0  0  0  0
M  END
$$$$
