ZINC000000044289      none
 OpenBabel11202420153D

 40 42  0  0  0  0  0  0  0  0999 V2000
   32.8714   34.2337   57.6212 C   0  0  0  0  0  0  0  0  0  0  0  0
   32.6130   35.5671   58.1703 N   0  0  0  0  0  0  0  0  0  0  0  0
   32.2318   35.8088   59.3730 N   0  0  0  0  0  0  0  0  0  0  0  0
   32.0864   37.1069   59.5596 C   0  0  0  0  0  0  0  0  0  0  0  0
   31.6618   37.7679   60.8107 C   0  0  0  0  0  0  0  0  0  0  0  0
   31.0521   38.8187   60.7665 O   0  0  0  0  0  0  0  0  0  0  0  0
   31.9553   37.2087   62.0014 N   0  0  0  0  0  0  0  0  0  0  0  0
   31.5584   37.8373   63.1860 C   0  0  0  0  0  0  0  0  0  0  0  0
   32.3095   37.6789   64.3435 C   0  0  0  0  0  0  0  0  0  0  0  0
   31.9176   38.3050   65.5103 C   0  0  0  0  0  0  0  0  0  0  0  0
   30.7730   39.0809   65.5297 C   0  0  0  0  0  0  0  0  0  0  0  0
   30.0200   39.2363   64.3803 C   0  0  0  0  0  0  0  0  0  0  0  0
   30.4092   38.6169   63.2089 C   0  0  0  0  0  0  0  0  0  0  0  0
   32.4043   37.7470   58.3451 C   0  0  0  0  0  0  0  0  0  0  0  0
   32.7423   36.7400   57.4790 C   0  0  0  0  0  0  0  0  0  0  0  0
   33.1576   36.8911   56.0753 C   0  0  0  0  0  0  0  0  0  0  0  0
   32.5066   36.3713   55.1890 O   0  0  0  0  0  0  0  0  0  0  0  0
   34.2593   37.6057   55.7716 N   0  0  0  0  0  0  0  0  0  0  0  0
   34.6540   37.7492   54.4378 C   0  0  0  0  0  0  0  0  0  0  0  0
   35.3232   38.8957   54.0296 C   0  0  0  0  0  0  0  0  0  0  0  0
   35.7159   39.0322   52.7125 C   0  0  0  0  0  0  0  0  0  0  0  0
   35.4340   38.0335   51.7984 C   0  0  0  0  0  0  0  0  0  0  0  0
   34.7631   36.8932   52.2004 C   0  0  0  0  0  0  0  0  0  0  0  0
   34.3724   36.7481   53.5172 C   0  0  0  0  0  0  0  0  0  0  0  0
   31.9979   33.8945   57.0643 H   0  0  0  0  0  0  0  0  0  0  0  0
   33.7331   34.2759   56.9551 H   0  0  0  0  0  0  0  0  0  0  0  0
   33.0755   33.5387   58.4357 H   0  0  0  0  0  0  0  0  0  0  0  0
   32.4417   36.3704   62.0367 H   0  0  0  0  0  0  0  0  0  0  0  0
   33.2011   37.0695   64.3301 H   0  0  0  0  0  0  0  0  0  0  0  0
   32.5034   38.1854   66.4097 H   0  0  0  0  0  0  0  0  0  0  0  0
   30.4663   39.5660   66.4445 H   0  0  0  0  0  0  0  0  0  0  0  0
   29.1265   39.8427   64.3989 H   0  0  0  0  0  0  0  0  0  0  0  0
   29.8203   38.7382   62.3118 H   0  0  0  0  0  0  0  0  0  0  0  0
   32.3879   38.8073   58.1407 H   0  0  0  0  0  0  0  0  0  0  0  0
   34.7785   38.0204   56.4784 H   0  0  0  0  0  0  0  0  0  0  0  0
   35.5397   39.6780   54.7421 H   0  0  0  0  0  0  0  0  0  0  0  0
   36.2399   39.9216   52.3952 H   0  0  0  0  0  0  0  0  0  0  0  0
   35.7381   38.1447   50.7680 H   0  0  0  0  0  0  0  0  0  0  0  0
   34.5442   36.1152   51.4840 H   0  0  0  0  0  0  0  0  0  0  0  0
   33.8483   35.8574   53.8305 H   0  0  0  0  0  0  0  0  0  0  0  0
  1  2  1  0  0  0  0
  1 25  1  0  0  0  0
  1 26  1  0  0  0  0
  1 27  1  0  0  0  0
  2 15  1  0  0  0  0
  2  3  1  0  0  0  0
  3  4  2  0  0  0  0
  4  5  1  0  0  0  0
  4 14  1  0  0  0  0
  5  6  2  0  0  0  0
  5  7  1  0  0  0  0
  7  8  1  0  0  0  0
  7 28  1  0  0  0  0
  8 13  2  0  0  0  0
  8  9  1  0  0  0  0
  9 10  2  0  0  0  0
  9 29  1  0  0  0  0
 10 11  1  0  0  0  0
 10 30  1  0  0  0  0
 11 12  2  0  0  0  0
 11 31  1  0  0  0  0
 12 13  1  0  0  0  0
 12 32  1  0  0  0  0
 13 33  1  0  0  0  0
 14 15  2  0  0  0  0
 14 34  1  0  0  0  0
 15 16  1  0  0  0  0
 16 17  2  0  0  0  0
 16 18  1  0  0  0  0
 18 19  1  0  0  0  0
 18 35  1  0  0  0  0
 19 24  2  0  0  0  0
 19 20  1  0  0  0  0
 20 21  2  0  0  0  0
 20 36  1  0  0  0  0
 21 22  1  0  0  0  0
 21 37  1  0  0  0  0
 22 23  2  0  0  0  0
 22 38  1  0  0  0  0
 23 24  1  0  0  0  0
 23 39  1  0  0  0  0
 24 40  1  0  0  0  0
M  END
$$$$
