ZINC000000024262      none
 OpenBabel11202420153D

 32 35  0  0  0  0  0  0  0  0999 V2000
   31.3752   35.3492   61.9344 O   0  0  0  0  0  0  0  0  0  0  0  0
   31.6082   36.5360   61.7919 C   0  0  0  0  0  0  0  0  0  0  0  0
   31.3939   37.4663   62.9094 C   0  0  0  0  0  0  0  0  0  0  0  0
   30.2375   38.1347   63.1690 C   0  0  0  0  0  0  0  0  0  0  0  0
   30.4444   38.9197   64.3281 C   0  0  0  0  0  0  0  0  0  0  0  0
   29.6277   39.7961   65.0555 C   0  0  0  0  0  0  0  0  0  0  0  0
   30.1242   40.4296   66.1571 C   0  0  0  0  0  0  0  0  0  0  0  0
   31.4343   40.2139   66.5671 C   0  0  0  0  0  0  0  0  0  0  0  0
   32.2560   39.3570   65.8698 C   0  0  0  0  0  0  0  0  0  0  0  0
   31.7730   38.6992   64.7422 C   0  0  0  0  0  0  0  0  0  0  0  0
   32.3361   37.8065   63.8602 N   0  0  0  0  0  0  0  0  0  0  0  0
   33.2454   37.4713   63.8991 H   0  0  0  0  0  0  0  0  0  0  0  0
   32.1095   37.0372   60.5043 C   0  0  0  0  0  0  0  0  0  0  0  0
   32.3574   36.2761   59.4039 C   0  0  0  0  0  0  0  0  0  0  0  0
   32.8221   37.1365   58.3808 C   0  0  0  0  0  0  0  0  0  0  0  0
   33.2232   36.9259   57.0547 C   0  0  0  0  0  0  0  0  0  0  0  0
   33.6384   37.9809   56.2958 C   0  0  0  0  0  0  0  0  0  0  0  0
   33.6669   39.2655   56.8248 C   0  0  0  0  0  0  0  0  0  0  0  0
   33.2767   39.4981   58.1248 C   0  0  0  0  0  0  0  0  0  0  0  0
   32.8496   38.4382   58.9193 C   0  0  0  0  0  0  0  0  0  0  0  0
   32.4096   38.3548   60.2199 N   0  0  0  0  0  0  0  0  0  0  0  0
   32.3247   39.0990   60.8362 H   0  0  0  0  0  0  0  0  0  0  0  0
   29.3246   38.0748   62.5949 H   0  0  0  0  0  0  0  0  0  0  0  0
   28.6081   39.9695   64.7448 H   0  0  0  0  0  0  0  0  0  0  0  0
   29.4931   41.1049   66.7158 H   0  0  0  0  0  0  0  0  0  0  0  0
   31.8115   40.7232   67.4415 H   0  0  0  0  0  0  0  0  0  0  0  0
   33.2725   39.1955   66.1969 H   0  0  0  0  0  0  0  0  0  0  0  0
   32.2216   35.2076   59.3247 H   0  0  0  0  0  0  0  0  0  0  0  0
   33.2039   35.9311   56.6346 H   0  0  0  0  0  0  0  0  0  0  0  0
   33.9475   37.8163   55.2741 H   0  0  0  0  0  0  0  0  0  0  0  0
   33.9979   40.0895   56.2103 H   0  0  0  0  0  0  0  0  0  0  0  0
   33.3018   40.5003   58.5265 H   0  0  0  0  0  0  0  0  0  0  0  0
  1  2  2  0  0  0  0
  2  3  1  0  0  0  0
  2 13  1  0  0  0  0
  3 11  1  0  0  0  0
  3  4  2  0  0  0  0
  4  5  1  0  0  0  0
  4 23  1  0  0  0  0
  5 10  2  0  0  0  0
  5  6  1  0  0  0  0
  6  7  2  0  0  0  0
  6 24  1  0  0  0  0
  7  8  1  0  0  0  0
  7 25  1  0  0  0  0
  8  9  2  0  0  0  0
  8 26  1  0  0  0  0
  9 10  1  0  0  0  0
  9 27  1  0  0  0  0
 10 11  1  0  0  0  0
 11 12  1  0  0  0  0
 13 21  1  0  0  0  0
 13 14  2  0  0  0  0
 14 15  1  0  0  0  0
 14 28  1  0  0  0  0
 15 20  2  0  0  0  0
 15 16  1  0  0  0  0
 16 17  2  0  0  0  0
 16 29  1  0  0  0  0
 17 18  1  0  0  0  0
 17 30  1  0  0  0  0
 18 19  2  0  0  0  0
 18 31  1  0  0  0  0
 19 20  1  0  0  0  0
 19 32  1  0  0  0  0
 20 21  1  0  0  0  0
 21 22  1  0  0  0  0
M  END
$$$$
