ZINC000000007223      none
 OpenBabel11202420153D

 37 40  0  0  0  0  0  0  0  0999 V2000
   32.6935   33.3140   60.7704 C   0  0  0  0  0  0  0  0  0  0  0  0
   31.5006   33.9933   60.0946 C   0  0  0  0  0  0  0  0  0  0  0  0
   31.8992   35.3742   59.6414 C   0  0  0  0  0  0  0  0  0  0  0  0
   32.4191   35.5626   58.3794 C   0  0  0  0  0  0  0  0  0  0  0  0
   32.7959   36.8347   57.9543 C   0  0  0  0  0  0  0  0  0  0  0  0
   33.3299   37.0107   56.6683 N   0  0  0  0  0  0  0  0  0  0  0  0
   33.5369   36.0321   55.7311 C   0  0  0  0  0  0  0  0  0  0  0  0
   34.0622   36.6347   54.6473 C   0  0  0  0  0  0  0  0  0  0  0  0
   34.1702   37.9457   54.9085 N   0  0  0  0  0  0  0  0  0  0  0  0
   33.7395   38.1826   56.1176 C   0  0  0  0  0  0  0  0  0  0  0  0
   32.6420   37.9248   58.7887 C   0  0  0  0  0  0  0  0  0  0  0  0
   32.1099   37.7475   60.0697 C   0  0  0  0  0  0  0  0  0  0  0  0
   31.8437   38.5964   61.0913 N   0  0  0  0  0  0  0  0  0  0  0  0
   31.3403   37.9283   62.0994 C   0  0  0  0  0  0  0  0  0  0  0  0
   30.9274   38.5206   63.3914 C   0  0  0  0  0  0  0  0  0  0  0  0
   31.8299   38.6257   64.4551 C   0  0  0  0  0  0  0  0  0  0  0  0
   31.4040   39.1892   65.6408 C   0  0  0  0  0  0  0  0  0  0  0  0
   30.1632   39.6161   65.7806 N   0  0  0  0  0  0  0  0  0  0  0  0
   29.2797   39.5300   64.8057 C   0  0  0  0  0  0  0  0  0  0  0  0
   29.6221   38.9853   63.5847 C   0  0  0  0  0  0  0  0  0  0  0  0
   31.2541   36.6008   61.7792 N   0  0  0  0  0  0  0  0  0  0  0  0
   30.9168   35.8920   62.3491 H   0  0  0  0  0  0  0  0  0  0  0  0
   31.7372   36.4585   60.4928 C   0  0  0  0  0  0  0  0  0  0  0  0
   32.4051   32.3153   61.0981 H   0  0  0  0  0  0  0  0  0  0  0  0
   33.5186   33.2400   60.0620 H   0  0  0  0  0  0  0  0  0  0  0  0
   33.0065   33.9031   61.6324 H   0  0  0  0  0  0  0  0  0  0  0  0
   30.6755   34.0674   60.8029 H   0  0  0  0  0  0  0  0  0  0  0  0
   31.1876   33.4042   59.2325 H   0  0  0  0  0  0  0  0  0  0  0  0
   32.5396   34.7179   57.7171 H   0  0  0  0  0  0  0  0  0  0  0  0
   33.3208   34.9796   55.8409 H   0  0  0  0  0  0  0  0  0  0  0  0
   34.3440   36.1471   53.7257 H   0  0  0  0  0  0  0  0  0  0  0  0
   33.7092   39.1495   56.5982 H   0  0  0  0  0  0  0  0  0  0  0  0
   32.9312   38.9097   58.4531 H   0  0  0  0  0  0  0  0  0  0  0  0
   32.8458   38.2747   64.3490 H   0  0  0  0  0  0  0  0  0  0  0  0
   32.0944   39.2789   66.4663 H   0  0  0  0  0  0  0  0  0  0  0  0
   28.2746   39.8916   64.9645 H   0  0  0  0  0  0  0  0  0  0  0  0
   28.8934   38.9194   62.7902 H   0  0  0  0  0  0  0  0  0  0  0  0
  1  2  1  0  0  0  0
  1 24  1  0  0  0  0
  1 25  1  0  0  0  0
  1 26  1  0  0  0  0
  2  3  1  0  0  0  0
  2 27  1  0  0  0  0
  2 28  1  0  0  0  0
  3 23  2  0  0  0  0
  3  4  1  0  0  0  0
  4  5  2  0  0  0  0
  4 29  1  0  0  0  0
  5  6  1  0  0  0  0
  5 11  1  0  0  0  0
  6 10  1  0  0  0  0
  6  7  1  0  0  0  0
  7  8  2  0  0  0  0
  7 30  1  0  0  0  0
  8  9  1  0  0  0  0
  8 31  1  0  0  0  0
  9 10  2  0  0  0  0
 10 32  1  0  0  0  0
 11 12  2  0  0  0  0
 11 33  1  0  0  0  0
 12 23  1  0  0  0  0
 12 13  1  0  0  0  0
 13 14  2  0  0  0  0
 14 15  1  0  0  0  0
 14 21  1  0  0  0  0
 15 20  2  0  0  0  0
 15 16  1  0  0  0  0
 16 17  2  0  0  0  0
 16 34  1  0  0  0  0
 17 18  1  0  0  0  0
 17 35  1  0  0  0  0
 18 19  2  0  0  0  0
 19 20  1  0  0  0  0
 19 36  1  0  0  0  0
 20 37  1  0  0  0  0
 21 22  1  0  0  0  0
 21 23  1  0  0  0  0
M  END
$$$$
