ZINC000000051503      none
 OpenBabel11202420153D

 36 36  0  0  0  0  0  0  0  0999 V2000
   31.4851   36.5260   62.2627 C   0  0  0  0  0  0  0  0  0  0  0  0
   30.7028   37.1495   61.1049 C   0  0  0  0  0  0  0  0  0  0  0  0
   31.2496   36.6819   59.8439 O   0  0  0  0  0  0  0  0  0  0  0  0
   32.2420   37.4141   59.2977 C   0  0  0  0  0  0  0  0  0  0  0  0
   32.6389   38.4160   59.8608 O   0  0  0  0  0  0  0  0  0  0  0  0
   32.8424   37.0017   58.0247 C   0  0  0  0  0  0  0  0  0  0  0  0
   33.3943   37.8439   57.0827 N   0  0  0  0  0  0  0  0  0  0  0  0
   33.4482   38.8096   57.1562 H   0  0  0  0  0  0  0  0  0  0  0  0
   33.8427   37.1183   56.0480 C   0  0  0  0  0  0  0  0  0  0  0  0
   34.5102   37.6637   54.8120 C   0  0  0  0  0  0  0  0  0  0  0  0
   33.5927   35.7804   56.3119 C   0  0  0  0  0  0  0  0  0  0  0  0
   33.9252   34.6437   55.4474 C   0  0  0  0  0  0  0  0  0  0  0  0
   34.9995   34.0910   55.5586 O   0  0  0  0  0  0  0  0  0  0  0  0
   32.9325   34.1619   54.4210 C   0  0  0  0  0  0  0  0  0  0  0  0
   32.6232   35.2944   53.4399 C   0  0  0  0  0  0  0  0  0  0  0  0
   33.5229   32.9739   53.6589 C   0  0  0  0  0  0  0  0  0  0  0  0
   32.9553   35.7200   57.5741 C   0  0  0  0  0  0  0  0  0  0  0  0
   32.4894   34.4754   58.2847 C   0  0  0  0  0  0  0  0  0  0  0  0
   31.4050   35.4402   62.2121 H   0  0  0  0  0  0  0  0  0  0  0  0
   32.5332   36.8168   62.1911 H   0  0  0  0  0  0  0  0  0  0  0  0
   31.0746   36.8770   63.2093 H   0  0  0  0  0  0  0  0  0  0  0  0
   30.7829   38.2353   61.1554 H   0  0  0  0  0  0  0  0  0  0  0  0
   29.6547   36.8587   61.1765 H   0  0  0  0  0  0  0  0  0  0  0  0
   33.7682   37.7887   54.0234 H   0  0  0  0  0  0  0  0  0  0  0  0
   35.2810   36.9688   54.4787 H   0  0  0  0  0  0  0  0  0  0  0  0
   34.9644   38.6281   55.0398 H   0  0  0  0  0  0  0  0  0  0  0  0
   32.0144   33.8529   54.9206 H   0  0  0  0  0  0  0  0  0  0  0  0
   33.5413   35.6033   52.9404 H   0  0  0  0  0  0  0  0  0  0  0  0
   31.9051   34.9460   52.6976 H   0  0  0  0  0  0  0  0  0  0  0  0
   32.2025   36.1408   53.9830 H   0  0  0  0  0  0  0  0  0  0  0  0
   33.7434   32.1670   54.3578 H   0  0  0  0  0  0  0  0  0  0  0  0
   32.8050   32.6254   52.9165 H   0  0  0  0  0  0  0  0  0  0  0  0
   34.4411   33.2829   53.1593 H   0  0  0  0  0  0  0  0  0  0  0  0
   33.2931   34.0943   58.9146 H   0  0  0  0  0  0  0  0  0  0  0  0
   31.6240   34.7127   58.9034 H   0  0  0  0  0  0  0  0  0  0  0  0
   32.2141   33.7189   57.5497 H   0  0  0  0  0  0  0  0  0  0  0  0
  1  2  1  0  0  0  0
  1 19  1  0  0  0  0
  1 20  1  0  0  0  0
  1 21  1  0  0  0  0
  2  3  1  0  0  0  0
  2 22  1  0  0  0  0
  2 23  1  0  0  0  0
  3  4  1  0  0  0  0
  4  5  2  0  0  0  0
  4  6  1  0  0  0  0
  6 17  2  0  0  0  0
  6  7  1  0  0  0  0
  7  8  1  0  0  0  0
  7  9  1  0  0  0  0
  9 10  1  0  0  0  0
  9 11  2  0  0  0  0
 10 24  1  0  0  0  0
 10 25  1  0  0  0  0
 10 26  1  0  0  0  0
 11 12  1  0  0  0  0
 11 17  1  0  0  0  0
 12 13  2  0  0  0  0
 12 14  1  0  0  0  0
 14 15  1  0  0  0  0
 14 16  1  0  0  0  0
 14 27  1  0  0  0  0
 15 28  1  0  0  0  0
 15 29  1  0  0  0  0
 15 30  1  0  0  0  0
 16 31  1  0  0  0  0
 16 32  1  0  0  0  0
 16 33  1  0  0  0  0
 17 18  1  0  0  0  0
 18 34  1  0  0  0  0
 18 35  1  0  0  0  0
 18 36  1  0  0  0  0
M  END
$$$$
