ZINC000000038096      none
 OpenBabel11202420153D

 36 38  0  0  0  0  0  0  0  0999 V2000
   29.4210   38.2604   63.9799 C   0  0  0  0  0  0  0  0  0  0  0  0
   30.0594   37.5056   62.8426 C   0  0  0  0  0  0  0  0  0  0  0  0
   29.3102   37.1658   61.7317 C   0  0  0  0  0  0  0  0  0  0  0  0
   29.8959   36.4733   60.6884 C   0  0  0  0  0  0  0  0  0  0  0  0
   31.2311   36.1217   60.7554 C   0  0  0  0  0  0  0  0  0  0  0  0
   31.8695   35.3670   59.6180 C   0  0  0  0  0  0  0  0  0  0  0  0
   32.4213   36.3179   58.6498 N   0  0  0  0  0  0  0  0  0  0  0  0
   32.3035   37.6524   58.8716 C   0  0  0  0  0  0  0  0  0  0  0  0
   32.7787   38.5309   58.0400 N   0  0  0  0  0  0  0  0  0  0  0  0
   33.4163   38.1640   56.9077 C   0  0  0  0  0  0  0  0  0  0  0  0
   34.1430   39.1325   55.6321 S   0  0  0  0  0  0  0  0  0  0  0  0
   34.6383   37.7062   54.7404 C   0  0  0  0  0  0  0  0  0  0  0  0
   35.3792   37.7377   53.4285 C   0  0  0  0  0  0  0  0  0  0  0  0
   34.2778   36.6012   55.3665 C   0  0  0  0  0  0  0  0  0  0  0  0
   34.5761   35.2268   54.8249 C   0  0  0  0  0  0  0  0  0  0  0  0
   33.5781   36.8122   56.6181 C   0  0  0  0  0  0  0  0  0  0  0  0
   33.0434   35.8634   57.5442 C   0  0  0  0  0  0  0  0  0  0  0  0
   33.1523   34.6666   57.3402 O   0  0  0  0  0  0  0  0  0  0  0  0
   31.9792   36.4575   61.8684 C   0  0  0  0  0  0  0  0  0  0  0  0
   31.3946   37.1536   62.9098 C   0  0  0  0  0  0  0  0  0  0  0  0
   29.0096   37.5529   64.6999 H   0  0  0  0  0  0  0  0  0  0  0  0
   30.1704   38.8824   64.4692 H   0  0  0  0  0  0  0  0  0  0  0  0
   28.6210   38.8917   63.5932 H   0  0  0  0  0  0  0  0  0  0  0  0
   28.2671   37.4407   61.6791 H   0  0  0  0  0  0  0  0  0  0  0  0
   29.3104   36.2076   59.8206 H   0  0  0  0  0  0  0  0  0  0  0  0
   31.1202   34.7443   59.1292 H   0  0  0  0  0  0  0  0  0  0  0  0
   32.6700   34.7363   60.0045 H   0  0  0  0  0  0  0  0  0  0  0  0
   31.8008   37.9934   59.7647 H   0  0  0  0  0  0  0  0  0  0  0  0
   35.5522   38.7727   53.1337 H   0  0  0  0  0  0  0  0  0  0  0  0
   36.3356   37.2267   53.5391 H   0  0  0  0  0  0  0  0  0  0  0  0
   34.7858   37.2364   52.6639 H   0  0  0  0  0  0  0  0  0  0  0  0
   35.5427   34.8905   55.1998 H   0  0  0  0  0  0  0  0  0  0  0  0
   33.7998   34.5329   55.1474 H   0  0  0  0  0  0  0  0  0  0  0  0
   34.6014   35.2632   53.7358 H   0  0  0  0  0  0  0  0  0  0  0  0
   33.0212   36.1789   61.9226 H   0  0  0  0  0  0  0  0  0  0  0  0
   31.9800   37.4195   63.7775 H   0  0  0  0  0  0  0  0  0  0  0  0
  1  2  1  0  0  0  0
  1 21  1  0  0  0  0
  1 22  1  0  0  0  0
  1 23  1  0  0  0  0
  2 20  2  0  0  0  0
  2  3  1  0  0  0  0
  3  4  2  0  0  0  0
  3 24  1  0  0  0  0
  4  5  1  0  0  0  0
  4 25  1  0  0  0  0
  5  6  1  0  0  0  0
  5 19  2  0  0  0  0
  6  7  1  0  0  0  0
  6 26  1  0  0  0  0
  6 27  1  0  0  0  0
  7 17  1  0  0  0  0
  7  8  1  0  0  0  0
  8  9  2  0  0  0  0
  8 28  1  0  0  0  0
  9 10  1  0  0  0  0
 10 16  2  0  0  0  0
 10 11  1  0  0  0  0
 11 12  1  0  0  0  0
 12 13  1  0  0  0  0
 12 14  2  0  0  0  0
 13 29  1  0  0  0  0
 13 30  1  0  0  0  0
 13 31  1  0  0  0  0
 14 15  1  0  0  0  0
 14 16  1  0  0  0  0
 15 32  1  0  0  0  0
 15 33  1  0  0  0  0
 15 34  1  0  0  0  0
 16 17  1  0  0  0  0
 17 18  2  0  0  0  0
 19 20  1  0  0  0  0
 19 35  1  0  0  0  0
 20 36  1  0  0  0  0
M  END
$$$$
