ZINC000000007280      none
 OpenBabel11202420153D

 44 45  0  0  0  0  0  0  0  0999 V2000
   32.2477   38.3678   60.1383 C   0  0  0  0  0  0  0  0  0  0  0  0
   32.6208   37.5195   61.2261 O   0  0  0  0  0  0  0  0  0  0  0  0
   31.6134   36.9188   61.9141 C   0  0  0  0  0  0  0  0  0  0  0  0
   30.2954   37.1388   61.5433 C   0  0  0  0  0  0  0  0  0  0  0  0
   29.2693   36.5321   62.2372 C   0  0  0  0  0  0  0  0  0  0  0  0
   29.5562   35.6925   63.3171 C   0  0  0  0  0  0  0  0  0  0  0  0
   28.4611   35.0442   64.0597 C   0  0  0  0  0  0  0  0  0  0  0  0
   28.3069   35.2820   65.3725 C   0  0  0  0  0  0  0  0  0  0  0  0
   29.3431   36.0221   66.1137 C   0  0  0  0  0  0  0  0  0  0  0  0
   29.9960   35.4210   67.1933 C   0  0  0  0  0  0  0  0  0  0  0  0
   30.9721   36.1167   67.8836 C   0  0  0  0  0  0  0  0  0  0  0  0
   31.6117   35.5306   68.9310 O   0  0  0  0  0  0  0  0  0  0  0  0
   31.2288   34.1935   69.2588 C   0  0  0  0  0  0  0  0  0  0  0  0
   31.2967   37.4174   67.5110 C   0  0  0  0  0  0  0  0  0  0  0  0
   32.2535   38.1009   68.1953 O   0  0  0  0  0  0  0  0  0  0  0  0
   33.3928   38.5404   67.4530 C   0  0  0  0  0  0  0  0  0  0  0  0
   30.6445   38.0209   66.4402 C   0  0  0  0  0  0  0  0  0  0  0  0
   30.9640   39.2928   66.0797 O   0  0  0  0  0  0  0  0  0  0  0  0
   30.2276   40.3478   66.7017 C   0  0  0  0  0  0  0  0  0  0  0  0
   29.6712   37.3289   65.7423 C   0  0  0  0  0  0  0  0  0  0  0  0
   30.8842   35.4698   63.6911 C   0  0  0  0  0  0  0  0  0  0  0  0
   31.9086   36.0781   62.9871 C   0  0  0  0  0  0  0  0  0  0  0  0
   33.2404   35.8541   63.3551 N   0  0  0  0  0  0  0  0  0  0  0  0
   31.7687   37.7725   59.3610 H   0  0  0  0  0  0  0  0  0  0  0  0
   31.5528   39.1291   60.4929 H   0  0  0  0  0  0  0  0  0  0  0  0
   33.1371   38.8490   59.7313 H   0  0  0  0  0  0  0  0  0  0  0  0
   30.0718   37.7873   60.7091 H   0  0  0  0  0  0  0  0  0  0  0  0
   28.2440   36.7057   61.9457 H   0  0  0  0  0  0  0  0  0  0  0  0
   27.7823   34.3778   63.5483 H   0  0  0  0  0  0  0  0  0  0  0  0
   27.4235   34.9306   65.8849 H   0  0  0  0  0  0  0  0  0  0  0  0
   29.7416   34.4129   67.4855 H   0  0  0  0  0  0  0  0  0  0  0  0
   30.1542   34.1567   69.4377 H   0  0  0  0  0  0  0  0  0  0  0  0
   31.4823   33.5299   68.4322 H   0  0  0  0  0  0  0  0  0  0  0  0
   31.7578   33.8738   70.1567 H   0  0  0  0  0  0  0  0  0  0  0  0
   33.0703   39.2086   66.6544 H   0  0  0  0  0  0  0  0  0  0  0  0
   34.0762   39.0706   68.1163 H   0  0  0  0  0  0  0  0  0  0  0  0
   33.9006   37.6776   67.0221 H   0  0  0  0  0  0  0  0  0  0  0  0
   30.3722   40.3043   67.7813 H   0  0  0  0  0  0  0  0  0  0  0  0
   30.5812   41.3080   66.3262 H   0  0  0  0  0  0  0  0  0  0  0  0
   29.1681   40.2357   66.4721 H   0  0  0  0  0  0  0  0  0  0  0  0
   29.1655   37.7976   64.9111 H   0  0  0  0  0  0  0  0  0  0  0  0
   31.1105   34.8219   64.5250 H   0  0  0  0  0  0  0  0  0  0  0  0
   33.9581   36.2835   62.8639 H   0  0  0  0  0  0  0  0  0  0  0  0
   33.4455   35.2695   64.1015 H   0  0  0  0  0  0  0  0  0  0  0  0
  1  2  1  0  0  0  0
  1 24  1  0  0  0  0
  1 25  1  0  0  0  0
  1 26  1  0  0  0  0
  2  3  1  0  0  0  0
  3 22  2  0  0  0  0
  3  4  1  0  0  0  0
  4  5  2  0  0  0  0
  4 27  1  0  0  0  0
  5  6  1  0  0  0  0
  5 28  1  0  0  0  0
  6  7  1  0  0  0  0
  6 21  2  0  0  0  0
  7  8  2  0  0  0  0
  7 29  1  0  0  0  0
  8  9  1  0  0  0  0
  8 30  1  0  0  0  0
  9 20  2  0  0  0  0
  9 10  1  0  0  0  0
 10 11  2  0  0  0  0
 10 31  1  0  0  0  0
 11 12  1  0  0  0  0
 11 14  1  0  0  0  0
 12 13  1  0  0  0  0
 13 32  1  0  0  0  0
 13 33  1  0  0  0  0
 13 34  1  0  0  0  0
 14 15  1  0  0  0  0
 14 17  2  0  0  0  0
 15 16  1  0  0  0  0
 16 35  1  0  0  0  0
 16 36  1  0  0  0  0
 16 37  1  0  0  0  0
 17 18  1  0  0  0  0
 17 20  1  0  0  0  0
 18 19  1  0  0  0  0
 19 38  1  0  0  0  0
 19 39  1  0  0  0  0
 19 40  1  0  0  0  0
 20 41  1  0  0  0  0
 21 22  1  0  0  0  0
 21 42  1  0  0  0  0
 22 23  1  0  0  0  0
 23 43  1  0  0  0  0
 23 44  1  0  0  0  0
M  END
$$$$
