ZINC000000000932      none
 OpenBabel11202420153D

 41 42  0  0  0  0  0  0  0  0999 V2000
   28.6890   37.0044   68.4332 C   0  0  0  0  0  0  0  0  0  0  0  0
   28.1456   35.7018   68.0259 N   0  3  0  0  0  0  0  0  0  0  0  0
   26.6901   35.6946   68.2240 C   0  0  0  0  0  0  0  0  0  0  0  0
   28.7531   34.6454   68.8356 O   0  0  0  0  0  1  0  0  0  0  0  0
   28.4480   35.4668   66.6078 C   0  0  0  0  0  0  0  0  0  0  0  0
   29.8926   34.9827   66.4677 C   0  0  0  0  0  0  0  0  0  0  0  0
   30.1868   34.7542   65.0880 O   0  0  0  0  0  0  0  0  0  0  0  0
   30.0489   35.9139   64.2646 C   0  0  0  0  0  0  0  0  0  0  0  0
   30.3815   35.5595   62.8380 C   0  0  0  0  0  0  0  0  0  0  0  0
   29.7691   36.2329   61.7977 C   0  0  0  0  0  0  0  0  0  0  0  0
   30.0779   35.9112   60.4893 C   0  0  0  0  0  0  0  0  0  0  0  0
   30.9912   34.9087   60.2211 C   0  0  0  0  0  0  0  0  0  0  0  0
   31.5997   34.2318   61.2614 C   0  0  0  0  0  0  0  0  0  0  0  0
   31.2948   34.5570   62.5699 C   0  0  0  0  0  0  0  0  0  0  0  0
   30.9895   36.9877   64.7477 C   0  0  0  0  0  0  0  0  0  0  0  0
   30.6630   38.3202   64.5784 C   0  0  0  0  0  0  0  0  0  0  0  0
   31.5236   39.3050   65.0258 C   0  0  0  0  0  0  0  0  0  0  0  0
   32.7156   38.9575   65.6334 C   0  0  0  0  0  0  0  0  0  0  0  0
   33.0446   37.6249   65.7981 C   0  0  0  0  0  0  0  0  0  0  0  0
   32.1816   36.6400   65.3553 C   0  0  0  0  0  0  0  0  0  0  0  0
   28.2364   37.7914   67.8301 H   0  0  0  0  0  0  0  0  0  0  0  0
   28.4646   37.1787   69.4856 H   0  0  0  0  0  0  0  0  0  0  0  0
   29.7690   37.0097   68.2863 H   0  0  0  0  0  0  0  0  0  0  0  0
   26.2982   34.7017   68.0037 H   0  0  0  0  0  0  0  0  0  0  0  0
   26.4628   35.9536   69.2582 H   0  0  0  0  0  0  0  0  0  0  0  0
   26.2291   36.4234   67.5573 H   0  0  0  0  0  0  0  0  0  0  0  0
   28.3201   36.3947   66.0505 H   0  0  0  0  0  0  0  0  0  0  0  0
   27.7711   34.7094   66.2125 H   0  0  0  0  0  0  0  0  0  0  0  0
   30.0205   34.0546   67.0249 H   0  0  0  0  0  0  0  0  0  0  0  0
   30.5697   35.7399   66.8629 H   0  0  0  0  0  0  0  0  0  0  0  0
   29.0230   36.2782   64.3188 H   0  0  0  0  0  0  0  0  0  0  0  0
   29.0522   37.0131   62.0072 H   0  0  0  0  0  0  0  0  0  0  0  0
   29.6022   36.4399   59.6766 H   0  0  0  0  0  0  0  0  0  0  0  0
   31.2292   34.6544   59.1988 H   0  0  0  0  0  0  0  0  0  0  0  0
   32.3129   33.4483   61.0520 H   0  0  0  0  0  0  0  0  0  0  0  0
   31.7699   34.0279   63.3828 H   0  0  0  0  0  0  0  0  0  0  0  0
   29.7336   38.5917   64.0996 H   0  0  0  0  0  0  0  0  0  0  0  0
   31.2667   40.3461   64.8967 H   0  0  0  0  0  0  0  0  0  0  0  0
   33.3901   39.7268   65.9790 H   0  0  0  0  0  0  0  0  0  0  0  0
   33.9760   37.3533   66.2724 H   0  0  0  0  0  0  0  0  0  0  0  0
   32.4387   35.5989   65.4836 H   0  0  0  0  0  0  0  0  0  0  0  0
  1  2  1  0  0  0  0
  1 21  1  0  0  0  0
  1 22  1  0  0  0  0
  1 23  1  0  0  0  0
  2  3  1  0  0  0  0
  2  4  1  0  0  0  0
  2  5  1  0  0  0  0
  3 24  1  0  0  0  0
  3 25  1  0  0  0  0
  3 26  1  0  0  0  0
  5  6  1  0  0  0  0
  5 27  1  0  0  0  0
  5 28  1  0  0  0  0
  6  7  1  0  0  0  0
  6 29  1  0  0  0  0
  6 30  1  0  0  0  0
  7  8  1  0  0  0  0
  8  9  1  0  0  0  0
  8 15  1  0  0  0  0
  8 31  1  0  0  0  0
  9 14  2  0  0  0  0
  9 10  1  0  0  0  0
 10 11  2  0  0  0  0
 10 32  1  0  0  0  0
 11 12  1  0  0  0  0
 11 33  1  0  0  0  0
 12 13  2  0  0  0  0
 12 34  1  0  0  0  0
 13 14  1  0  0  0  0
 13 35  1  0  0  0  0
 14 36  1  0  0  0  0
 15 20  2  0  0  0  0
 15 16  1  0  0  0  0
 16 17  2  0  0  0  0
 16 37  1  0  0  0  0
 17 18  1  0  0  0  0
 17 38  1  0  0  0  0
 18 19  2  0  0  0  0
 18 39  1  0  0  0  0
 19 20  1  0  0  0  0
 19 40  1  0  0  0  0
 20 41  1  0  0  0  0
M  CHG  1   2   1
M  END
$$$$
