ZINC000000003982      none
 OpenBabel11202420153D

 26 28  0  0  1  0  0  0  0  0999 V2000
   30.2465   37.1470   59.9350 C   0  0  0  0  0  0  0  0  0  0  0  0
   31.7414   36.9511   60.1955 C   0  0  1  0  0  0  0  0  0  0  0  0
   32.0152   36.1419   61.4738 C   0  0  0  0  0  0  0  0  0  0  0  0
   31.9955   34.6979   60.9100 C   0  0  0  0  0  0  0  0  0  0  0  0
   32.3542   34.8596   59.4468 C   0  0  0  0  0  0  0  0  0  0  0  0
   32.5739   33.9464   58.6792 O   0  0  0  0  0  0  0  0  0  0  0  0
   32.3932   36.1630   59.1250 N   0  0  0  0  0  0  0  0  0  0  0  0
   32.8534   37.1203   58.2077 C   0  0  0  0  0  0  0  0  0  0  0  0
   33.2501   37.0051   56.8829 C   0  0  0  0  0  0  0  0  0  0  0  0
   33.6244   38.1289   56.1713 C   0  0  0  0  0  0  0  0  0  0  0  0
   33.6045   39.3735   56.7737 C   0  0  0  0  0  0  0  0  0  0  0  0
   33.2196   39.4984   58.0954 C   0  0  0  0  0  0  0  0  0  0  0  0
   32.8527   38.3752   58.8202 C   0  0  0  0  0  0  0  0  0  0  0  0
   32.4706   38.2236   60.1683 N   0  0  0  0  0  0  0  0  0  0  0  0
   29.7565   36.1748   59.8822 H   0  0  0  0  0  0  0  0  0  0  0  0
   29.8097   37.7304   60.7456 H   0  0  0  0  0  0  0  0  0  0  0  0
   30.1082   37.6753   58.9916 H   0  0  0  0  0  0  0  0  0  0  0  0
   32.9906   36.3874   61.8937 H   0  0  0  0  0  0  0  0  0  0  0  0
   31.2245   36.2888   62.2096 H   0  0  0  0  0  0  0  0  0  0  0  0
   32.7368   34.0807   61.4179 H   0  0  0  0  0  0  0  0  0  0  0  0
   31.0015   34.2625   61.0126 H   0  0  0  0  0  0  0  0  0  0  0  0
   33.2665   36.0356   56.4074 H   0  0  0  0  0  0  0  0  0  0  0  0
   33.9332   38.0350   55.1407 H   0  0  0  0  0  0  0  0  0  0  0  0
   33.8899   40.2496   56.2104 H   0  0  0  0  0  0  0  0  0  0  0  0
   33.2043   40.4716   58.5635 H   0  0  0  0  0  0  0  0  0  0  0  0
   32.6492   38.8239   60.9090 H   0  0  0  0  0  0  0  0  0  0  0  0
  1 15  1  0  0  0  0
  1 16  1  0  0  0  0
  1 17  1  0  0  0  0
  2  1  1  6  0  0  0
  2  7  1  0  0  0  0
  2 14  1  0  0  0  0
  2  3  1  0  0  0  0
  3  4  1  0  0  0  0
  3 18  1  0  0  0  0
  3 19  1  0  0  0  0
  4  5  1  0  0  0  0
  4 20  1  0  0  0  0
  4 21  1  0  0  0  0
  5  6  2  0  0  0  0
  5  7  1  0  0  0  0
  7  8  1  0  0  0  0
  8 13  2  0  0  0  0
  8  9  1  0  0  0  0
  9 10  2  0  0  0  0
  9 22  1  0  0  0  0
 10 11  1  0  0  0  0
 10 23  1  0  0  0  0
 11 12  2  0  0  0  0
 11 24  1  0  0  0  0
 12 13  1  0  0  0  0
 12 25  1  0  0  0  0
 13 14  1  0  0  0  0
 14 26  1  0  0  0  0
M  END
$$$$
