ZINC000000030157      none
 OpenBabel11202420163D

 42 43  0  0  0  0  0  0  0  0999 V2000
   32.0463   39.3795   57.3383 C   0  0  0  0  0  0  0  0  0  0  0  0
   32.6702   38.6255   58.5143 C   0  0  0  0  0  0  0  0  0  0  0  0
   32.6403   37.1449   58.2344 C   0  0  0  0  0  0  0  0  0  0  0  0
   33.0151   36.6682   56.9933 C   0  0  0  0  0  0  0  0  0  0  0  0
   32.9884   35.3100   56.7359 C   0  0  0  0  0  0  0  0  0  0  0  0
   32.5867   34.4246   57.7194 C   0  0  0  0  0  0  0  0  0  0  0  0
   32.2112   34.8947   58.9623 C   0  0  0  0  0  0  0  0  0  0  0  0
   31.7735   33.9291   60.0333 C   0  0  0  0  0  0  0  0  0  0  0  0
   32.2368   36.2585   59.2241 C   0  0  0  0  0  0  0  0  0  0  0  0
   31.8565   36.7381   60.4823 N   0  0  0  0  0  0  0  0  0  0  0  0
   30.5696   37.0604   60.7201 C   0  0  0  0  0  0  0  0  0  0  0  0
   29.7411   36.9344   59.8432 O   0  0  0  0  0  0  0  0  0  0  0  0
   30.1601   37.5769   62.0752 C   0  0  0  0  0  0  0  0  0  0  0  0
   29.7700   36.4190   62.9572 C   0  0  0  0  0  0  0  0  0  0  0  0
   28.4609   35.9775   62.9802 C   0  0  0  0  0  0  0  0  0  0  0  0
   28.1026   34.9149   63.7884 C   0  0  0  0  0  0  0  0  0  0  0  0
   29.0527   34.2912   64.5763 C   0  0  0  0  0  0  0  0  0  0  0  0
   30.3626   34.7293   64.5577 C   0  0  0  0  0  0  0  0  0  0  0  0
   30.7261   35.7918   63.7426 C   0  0  0  0  0  0  0  0  0  0  0  0
   32.0153   36.2205   63.7176 O   0  0  0  0  0  0  0  0  0  0  0  0
   32.3804   37.2340   64.6566 C   0  0  0  0  0  0  0  0  0  0  0  0
   32.6125   39.1697   56.4308 H   0  0  0  0  0  0  0  0  0  0  0  0
   31.0140   39.0555   57.2056 H   0  0  0  0  0  0  0  0  0  0  0  0
   32.0678   40.4503   57.5407 H   0  0  0  0  0  0  0  0  0  0  0  0
   32.1041   38.8351   59.4218 H   0  0  0  0  0  0  0  0  0  0  0  0
   33.7025   38.9494   58.6471 H   0  0  0  0  0  0  0  0  0  0  0  0
   33.3336   37.3568   56.2247 H   0  0  0  0  0  0  0  0  0  0  0  0
   33.2823   34.9398   55.7648 H   0  0  0  0  0  0  0  0  0  0  0  0
   32.5669   33.3642   57.5151 H   0  0  0  0  0  0  0  0  0  0  0  0
   32.6356   33.6359   60.6325 H   0  0  0  0  0  0  0  0  0  0  0  0
   31.0322   34.4078   60.6732 H   0  0  0  0  0  0  0  0  0  0  0  0
   31.3361   33.0453   59.5690 H   0  0  0  0  0  0  0  0  0  0  0  0
   32.5191   36.8388   61.1835 H   0  0  0  0  0  0  0  0  0  0  0  0
   30.9946   38.1129   62.5271 H   0  0  0  0  0  0  0  0  0  0  0  0
   29.3114   38.2521   61.9654 H   0  0  0  0  0  0  0  0  0  0  0  0
   27.7170   36.4630   62.3658 H   0  0  0  0  0  0  0  0  0  0  0  0
   27.0788   34.5713   63.8050 H   0  0  0  0  0  0  0  0  0  0  0  0
   28.7704   33.4612   65.2069 H   0  0  0  0  0  0  0  0  0  0  0  0
   31.1042   34.2422   65.1734 H   0  0  0  0  0  0  0  0  0  0  0  0
   33.4337   37.4843   64.5299 H   0  0  0  0  0  0  0  0  0  0  0  0
   31.7728   38.1228   64.4862 H   0  0  0  0  0  0  0  0  0  0  0  0
   32.2130   36.8681   65.6695 H   0  0  0  0  0  0  0  0  0  0  0  0
  1  2  1  0  0  0  0
  1 22  1  0  0  0  0
  1 23  1  0  0  0  0
  1 24  1  0  0  0  0
  2  3  1  0  0  0  0
  2 25  1  0  0  0  0
  2 26  1  0  0  0  0
  3  9  2  0  0  0  0
  3  4  1  0  0  0  0
  4  5  2  0  0  0  0
  4 27  1  0  0  0  0
  5  6  1  0  0  0  0
  5 28  1  0  0  0  0
  6  7  2  0  0  0  0
  6 29  1  0  0  0  0
  7  8  1  0  0  0  0
  7  9  1  0  0  0  0
  8 30  1  0  0  0  0
  8 31  1  0  0  0  0
  8 32  1  0  0  0  0
  9 10  1  0  0  0  0
 10 11  1  0  0  0  0
 10 33  1  0  0  0  0
 11 12  2  0  0  0  0
 11 13  1  0  0  0  0
 13 14  1  0  0  0  0
 13 34  1  0  0  0  0
 13 35  1  0  0  0  0
 14 19  2  0  0  0  0
 14 15  1  0  0  0  0
 15 16  2  0  0  0  0
 15 36  1  0  0  0  0
 16 17  1  0  0  0  0
 16 37  1  0  0  0  0
 17 18  2  0  0  0  0
 17 38  1  0  0  0  0
 18 19  1  0  0  0  0
 18 39  1  0  0  0  0
 19 20  1  0  0  0  0
 20 21  1  0  0  0  0
 21 40  1  0  0  0  0
 21 41  1  0  0  0  0
 21 42  1  0  0  0  0
M  END
$$$$
