ZINC000000044363      none
 OpenBabel11202420153D

 41 43  0  0  0  0  0  0  0  0999 V2000
   31.3964   36.5717   64.9074 C   0  0  0  0  0  0  0  0  0  0  0  0
   30.6688   37.0447   63.6754 C   0  0  0  0  0  0  0  0  0  0  0  0
   30.5139   38.2319   63.4809 O   0  0  0  0  0  0  0  0  0  0  0  0
   30.1953   36.1489   62.7867 N   0  0  0  0  0  0  0  0  0  0  0  0
   29.4934   36.6090   61.5859 C   0  0  0  0  0  0  0  0  0  0  0  0
   30.4587   36.8068   60.5018 N   0  0  0  0  0  0  0  0  0  0  0  0
   31.1033   37.9619   60.2582 C   0  0  0  0  0  0  0  0  0  0  0  0
   30.9787   38.9901   60.8933 O   0  0  0  0  0  0  0  0  0  0  0  0
   31.9866   37.7730   59.0924 C   0  0  0  0  0  0  0  0  0  0  0  0
   32.8684   38.5947   58.4031 C   0  0  0  0  0  0  0  0  0  0  0  0
   33.5664   38.0979   57.3187 C   0  0  0  0  0  0  0  0  0  0  0  0
   33.3912   36.7796   56.9131 C   0  0  0  0  0  0  0  0  0  0  0  0
   34.0993   36.2915   55.8204 N   0  0  0  0  0  0  0  0  0  0  0  0
   32.5081   35.9441   57.5983 C   0  0  0  0  0  0  0  0  0  0  0  0
   31.8060   36.4343   58.6839 C   0  0  0  0  0  0  0  0  0  0  0  0
   30.8210   35.8552   59.6225 C   0  0  0  0  0  0  0  0  0  0  0  0
   30.4071   34.7136   59.6018 O   0  0  0  0  0  0  0  0  0  0  0  0
   30.3740   34.7794   63.0110 C   0  0  0  0  0  0  0  0  0  0  0  0
   31.5092   34.1380   62.5323 C   0  0  0  0  0  0  0  0  0  0  0  0
   31.6824   32.7863   62.7551 C   0  0  0  0  0  0  0  0  0  0  0  0
   30.7270   32.0711   63.4543 C   0  0  0  0  0  0  0  0  0  0  0  0
   29.5957   32.7066   63.9317 C   0  0  0  0  0  0  0  0  0  0  0  0
   29.4195   34.0597   63.7174 C   0  0  0  0  0  0  0  0  0  0  0  0
   28.1896   34.7530   64.2444 C   0  0  0  0  0  0  0  0  0  0  0  0
   30.6820   36.4255   65.7176 H   0  0  0  0  0  0  0  0  0  0  0  0
   31.9000   35.6292   64.6925 H   0  0  0  0  0  0  0  0  0  0  0  0
   32.1335   37.3182   65.2033 H   0  0  0  0  0  0  0  0  0  0  0  0
   28.7584   35.8621   61.2860 H   0  0  0  0  0  0  0  0  0  0  0  0
   28.9882   37.5511   61.7989 H   0  0  0  0  0  0  0  0  0  0  0  0
   33.0088   39.6195   58.7139 H   0  0  0  0  0  0  0  0  0  0  0  0
   34.2518   38.7378   56.7828 H   0  0  0  0  0  0  0  0  0  0  0  0
   34.7139   36.8703   55.3429 H   0  0  0  0  0  0  0  0  0  0  0  0
   33.9786   35.3720   55.5358 H   0  0  0  0  0  0  0  0  0  0  0  0
   32.3733   34.9203   57.2819 H   0  0  0  0  0  0  0  0  0  0  0  0
   32.2557   34.6959   61.9865 H   0  0  0  0  0  0  0  0  0  0  0  0
   32.5647   32.2869   62.3829 H   0  0  0  0  0  0  0  0  0  0  0  0
   30.8649   31.0140   63.6273 H   0  0  0  0  0  0  0  0  0  0  0  0
   28.8514   32.1453   64.4770 H   0  0  0  0  0  0  0  0  0  0  0  0
   27.4001   34.7126   63.4939 H   0  0  0  0  0  0  0  0  0  0  0  0
   27.8528   34.2545   65.1532 H   0  0  0  0  0  0  0  0  0  0  0  0
   28.4262   35.7934   64.4670 H   0  0  0  0  0  0  0  0  0  0  0  0
  1  2  1  0  0  0  0
  1 25  1  0  0  0  0
  1 26  1  0  0  0  0
  1 27  1  0  0  0  0
  2  3  2  0  0  0  0
  2  4  1  0  0  0  0
  4  5  1  0  0  0  0
  4 18  1  0  0  0  0
  5  6  1  0  0  0  0
  5 28  1  0  0  0  0
  5 29  1  0  0  0  0
  6 16  1  0  0  0  0
  6  7  1  0  0  0  0
  7  8  2  0  0  0  0
  7  9  1  0  0  0  0
  9 15  2  0  0  0  0
  9 10  1  0  0  0  0
 10 11  2  0  0  0  0
 10 30  1  0  0  0  0
 11 12  1  0  0  0  0
 11 31  1  0  0  0  0
 12 13  1  0  0  0  0
 12 14  2  0  0  0  0
 13 32  1  0  0  0  0
 13 33  1  0  0  0  0
 14 15  1  0  0  0  0
 14 34  1  0  0  0  0
 15 16  1  0  0  0  0
 16 17  2  0  0  0  0
 18 23  2  0  0  0  0
 18 19  1  0  0  0  0
 19 20  2  0  0  0  0
 19 35  1  0  0  0  0
 20 21  1  0  0  0  0
 20 36  1  0  0  0  0
 21 22  2  0  0  0  0
 21 37  1  0  0  0  0
 22 23  1  0  0  0  0
 22 38  1  0  0  0  0
 23 24  1  0  0  0  0
 24 39  1  0  0  0  0
 24 40  1  0  0  0  0
 24 41  1  0  0  0  0
M  END
$$$$
