ZINC000000021413      none
 OpenBabel11202420153D

 37 39  0  0  0  0  0  0  0  0999 V2000
   33.6596   37.4618   66.4112 C   0  0  0  0  0  0  0  0  0  0  0  0
   32.2524   37.6237   66.2222 O   0  0  0  0  0  0  0  0  0  0  0  0
   31.7394   37.2203   65.0290 C   0  0  0  0  0  0  0  0  0  0  0  0
   32.5721   36.6802   64.0621 C   0  0  0  0  0  0  0  0  0  0  0  0
   32.0479   36.2651   62.8522 C   0  0  0  0  0  0  0  0  0  0  0  0
   30.6951   36.3977   62.5994 C   0  0  0  0  0  0  0  0  0  0  0  0
   30.1301   35.9491   61.2763 C   0  0  0  0  0  0  0  0  0  0  0  0
   30.9951   36.4190   60.1913 N   0  0  0  0  0  0  0  0  0  0  0  0
   31.2693   37.7123   59.9421 C   0  0  0  0  0  0  0  0  0  0  0  0
   30.8458   38.6606   60.5716 O   0  0  0  0  0  0  0  0  0  0  0  0
   32.1764   37.7855   58.7774 C   0  0  0  0  0  0  0  0  0  0  0  0
   32.7717   38.8231   58.0782 C   0  0  0  0  0  0  0  0  0  0  0  0
   33.5876   38.5417   56.9936 C   0  0  0  0  0  0  0  0  0  0  0  0
   33.8061   37.2344   56.6015 C   0  0  0  0  0  0  0  0  0  0  0  0
   33.2124   36.1865   57.2876 C   0  0  0  0  0  0  0  0  0  0  0  0
   32.3946   36.4526   58.3742 C   0  0  0  0  0  0  0  0  0  0  0  0
   31.6193   35.6140   59.3127 C   0  0  0  0  0  0  0  0  0  0  0  0
   31.5563   34.4014   59.2934 O   0  0  0  0  0  0  0  0  0  0  0  0
   29.8589   36.9356   63.5597 C   0  0  0  0  0  0  0  0  0  0  0  0
   30.3768   37.3485   64.7767 C   0  0  0  0  0  0  0  0  0  0  0  0
   29.5556   37.8784   65.7224 O   0  0  0  0  0  0  0  0  0  0  0  0
   29.3619   39.2939   65.6942 C   0  0  0  0  0  0  0  0  0  0  0  0
   33.9191   36.4070   66.3224 H   0  0  0  0  0  0  0  0  0  0  0  0
   34.1961   38.0330   65.6535 H   0  0  0  0  0  0  0  0  0  0  0  0
   33.9368   37.8221   67.4019 H   0  0  0  0  0  0  0  0  0  0  0  0
   33.6298   36.5792   64.2555 H   0  0  0  0  0  0  0  0  0  0  0  0
   32.6972   35.8398   62.1012 H   0  0  0  0  0  0  0  0  0  0  0  0
   29.1300   36.3635   61.1491 H   0  0  0  0  0  0  0  0  0  0  0  0
   30.0778   34.8606   61.2538 H   0  0  0  0  0  0  0  0  0  0  0  0
   32.6043   39.8466   58.3798 H   0  0  0  0  0  0  0  0  0  0  0  0
   34.0556   39.3497   56.4507 H   0  0  0  0  0  0  0  0  0  0  0  0
   34.4436   37.0280   55.7546 H   0  0  0  0  0  0  0  0  0  0  0  0
   33.3866   35.1670   56.9769 H   0  0  0  0  0  0  0  0  0  0  0  0
   28.8019   37.0344   63.3612 H   0  0  0  0  0  0  0  0  0  0  0  0
   28.9299   39.5824   64.7360 H   0  0  0  0  0  0  0  0  0  0  0  0
   28.6872   39.5845   66.4994 H   0  0  0  0  0  0  0  0  0  0  0  0
   30.3213   39.7944   65.8257 H   0  0  0  0  0  0  0  0  0  0  0  0
  1  2  1  0  0  0  0
  1 23  1  0  0  0  0
  1 24  1  0  0  0  0
  1 25  1  0  0  0  0
  2  3  1  0  0  0  0
  3 20  2  0  0  0  0
  3  4  1  0  0  0  0
  4  5  2  0  0  0  0
  4 26  1  0  0  0  0
  5  6  1  0  0  0  0
  5 27  1  0  0  0  0
  6  7  1  0  0  0  0
  6 19  2  0  0  0  0
  7  8  1  0  0  0  0
  7 28  1  0  0  0  0
  7 29  1  0  0  0  0
  8 17  1  0  0  0  0
  8  9  1  0  0  0  0
  9 10  2  0  0  0  0
  9 11  1  0  0  0  0
 11 16  2  0  0  0  0
 11 12  1  0  0  0  0
 12 13  2  0  0  0  0
 12 30  1  0  0  0  0
 13 14  1  0  0  0  0
 13 31  1  0  0  0  0
 14 15  2  0  0  0  0
 14 32  1  0  0  0  0
 15 16  1  0  0  0  0
 15 33  1  0  0  0  0
 16 17  1  0  0  0  0
 17 18  2  0  0  0  0
 19 20  1  0  0  0  0
 19 34  1  0  0  0  0
 20 21  1  0  0  0  0
 21 22  1  0  0  0  0
 22 35  1  0  0  0  0
 22 36  1  0  0  0  0
 22 37  1  0  0  0  0
M  END
$$$$
