ZINC000000000450      none
 OpenBabel11202420153D

 27 27  0  0  1  0  0  0  0  0999 V2000
   33.2405   36.0030   56.5910 C   0  0  0  0  0  0  0  0  0  0  0  0
   33.2381   37.3671   57.2317 C   0  0  0  0  0  0  0  0  0  0  0  0
   33.6142   38.4760   56.4983 C   0  0  0  0  0  0  0  0  0  0  0  0
   33.6118   39.7277   57.0853 C   0  0  0  0  0  0  0  0  0  0  0  0
   33.2335   39.8732   58.4075 C   0  0  0  0  0  0  0  0  0  0  0  0
   32.8508   38.7685   59.1431 C   0  0  0  0  0  0  0  0  0  0  0  0
   32.8578   37.5104   58.5580 C   0  0  0  0  0  0  0  0  0  0  0  0
   32.4875   36.4212   59.2813 O   0  0  0  0  0  0  0  0  0  0  0  0
   31.5312   36.6286   60.3228 C   0  0  0  0  0  0  0  0  0  0  0  0
   32.2605   36.9579   61.6268 C   0  0  2  0  0  0  0  0  0  0  0  0
   33.1019   37.6179   61.4158 H   0  0  0  0  0  0  0  0  0  0  0  0
   32.7399   35.7505   62.2224 O   0  0  0  0  0  0  0  0  0  0  0  0
   31.2956   37.6532   62.5893 C   0  0  0  0  0  0  0  0  0  0  0  0
   30.1926   36.7880   62.8659 O   0  0  0  0  0  0  0  0  0  0  0  0
   32.2660   35.8107   56.1423 H   0  0  0  0  0  0  0  0  0  0  0  0
   34.0096   35.9654   55.8196 H   0  0  0  0  0  0  0  0  0  0  0  0
   33.4476   35.2466   57.3479 H   0  0  0  0  0  0  0  0  0  0  0  0
   33.9100   38.3650   55.4656 H   0  0  0  0  0  0  0  0  0  0  0  0
   33.9061   40.5933   56.5104 H   0  0  0  0  0  0  0  0  0  0  0  0
   33.2328   40.8520   58.8638 H   0  0  0  0  0  0  0  0  0  0  0  0
   32.5504   38.8833   60.1741 H   0  0  0  0  0  0  0  0  0  0  0  0
   30.9380   35.7240   60.4567 H   0  0  0  0  0  0  0  0  0  0  0  0
   30.8754   37.4567   60.0542 H   0  0  0  0  0  0  0  0  0  0  0  0
   32.0437   35.1147   62.4375 H   0  0  0  0  0  0  0  0  0  0  0  0
   30.9301   38.5742   62.1350 H   0  0  0  0  0  0  0  0  0  0  0  0
   31.8153   37.8878   63.5183 H   0  0  0  0  0  0  0  0  0  0  0  0
   30.4444   35.9473   63.2721 H   0  0  0  0  0  0  0  0  0  0  0  0
  1  2  1  0  0  0  0
  1 15  1  0  0  0  0
  1 16  1  0  0  0  0
  1 17  1  0  0  0  0
  2  7  2  0  0  0  0
  2  3  1  0  0  0  0
  3  4  2  0  0  0  0
  3 18  1  0  0  0  0
  4  5  1  0  0  0  0
  4 19  1  0  0  0  0
  5  6  2  0  0  0  0
  5 20  1  0  0  0  0
  6  7  1  0  0  0  0
  6 21  1  0  0  0  0
  7  8  1  0  0  0  0
  8  9  1  0  0  0  0
  9 10  1  0  0  0  0
  9 22  1  0  0  0  0
  9 23  1  0  0  0  0
 10 11  1  6  0  0  0
 10 12  1  0  0  0  0
 10 13  1  0  0  0  0
 12 24  1  0  0  0  0
 13 14  1  0  0  0  0
 13 25  1  0  0  0  0
 13 26  1  0  0  0  0
 14 27  1  0  0  0  0
M  END
$$$$
