ZINC000000047301      none
 OpenBabel11202420153D

 38 40  0  0  0  0  0  0  0  0999 V2000
   31.9150   34.1908   59.1419 C   0  0  0  0  0  0  0  0  0  0  0  0
   32.3052   35.6172   58.8516 C   0  0  0  0  0  0  0  0  0  0  0  0
   32.7880   36.0718   57.7065 N   0  0  0  0  0  0  0  0  0  0  0  0
   33.0227   37.3793   57.8027 C   0  0  0  0  0  0  0  0  0  0  0  0
   33.5287   38.3117   56.8792 C   0  0  0  0  0  0  0  0  0  0  0  0
   33.6686   39.6149   57.2531 C   0  0  0  0  0  0  0  0  0  0  0  0
   33.3071   40.0059   58.5497 C   0  0  0  0  0  0  0  0  0  0  0  0
   32.8224   39.0943   59.4235 C   0  0  0  0  0  0  0  0  0  0  0  0
   32.6797   37.7924   59.0586 N   0  0  0  0  0  0  0  0  0  0  0  0
   32.2206   36.6786   59.7376 C   0  0  0  0  0  0  0  0  0  0  0  0
   31.7560   36.6322   61.0767 C   0  0  0  0  0  0  0  0  0  0  0  0
   31.8926   35.6159   61.7336 O   0  0  0  0  0  0  0  0  0  0  0  0
   31.1632   37.7126   61.6222 N   0  0  0  0  0  0  0  0  0  0  0  0
   30.6832   37.6645   63.0055 C   0  0  0  0  0  0  0  0  0  0  0  0
   30.0564   39.0106   63.3749 C   0  0  0  0  0  0  0  0  0  0  0  0
   29.5552   38.9602   64.8196 C   0  0  0  0  0  0  0  0  0  0  0  0
   30.7291   38.6699   65.7570 C   0  0  0  0  0  0  0  0  0  0  0  0
   31.3559   37.3241   65.3875 C   0  0  0  0  0  0  0  0  0  0  0  0
   31.8572   37.3743   63.9428 C   0  0  0  0  0  0  0  0  0  0  0  0
   30.8658   34.0421   58.8870 H   0  0  0  0  0  0  0  0  0  0  0  0
   32.5324   33.5171   58.5476 H   0  0  0  0  0  0  0  0  0  0  0  0
   32.0649   33.9816   60.2011 H   0  0  0  0  0  0  0  0  0  0  0  0
   33.8033   37.9981   55.8829 H   0  0  0  0  0  0  0  0  0  0  0  0
   34.0516   40.3427   56.5531 H   0  0  0  0  0  0  0  0  0  0  0  0
   33.4155   41.0372   58.8515 H   0  0  0  0  0  0  0  0  0  0  0  0
   32.5464   39.4035   60.4208 H   0  0  0  0  0  0  0  0  0  0  0  0
   31.0544   38.5221   61.0990 H   0  0  0  0  0  0  0  0  0  0  0  0
   29.9364   36.8768   63.1037 H   0  0  0  0  0  0  0  0  0  0  0  0
   30.8033   39.7984   63.2768 H   0  0  0  0  0  0  0  0  0  0  0  0
   29.2202   39.2174   62.7072 H   0  0  0  0  0  0  0  0  0  0  0  0
   28.8084   38.1724   64.9179 H   0  0  0  0  0  0  0  0  0  0  0  0
   29.1086   39.9191   65.0829 H   0  0  0  0  0  0  0  0  0  0  0  0
   30.3720   38.6341   66.7862 H   0  0  0  0  0  0  0  0  0  0  0  0
   31.4759   39.4578   65.6587 H   0  0  0  0  0  0  0  0  0  0  0  0
   30.6091   36.5362   65.4857 H   0  0  0  0  0  0  0  0  0  0  0  0
   32.1923   37.1172   66.0552 H   0  0  0  0  0  0  0  0  0  0  0  0
   32.3038   36.4154   63.6796 H   0  0  0  0  0  0  0  0  0  0  0  0
   32.6040   38.1621   63.8446 H   0  0  0  0  0  0  0  0  0  0  0  0
  1  2  1  0  0  0  0
  1 20  1  0  0  0  0
  1 21  1  0  0  0  0
  1 22  1  0  0  0  0
  2 10  2  0  0  0  0
  2  3  1  0  0  0  0
  3  4  2  0  0  0  0
  4  9  1  0  0  0  0
  4  5  1  0  0  0  0
  5  6  2  0  0  0  0
  5 23  1  0  0  0  0
  6  7  1  0  0  0  0
  6 24  1  0  0  0  0
  7  8  2  0  0  0  0
  7 25  1  0  0  0  0
  8  9  1  0  0  0  0
  8 26  1  0  0  0  0
  9 10  1  0  0  0  0
 10 11  1  0  0  0  0
 11 12  2  0  0  0  0
 11 13  1  0  0  0  0
 13 14  1  0  0  0  0
 13 27  1  0  0  0  0
 14 19  1  0  0  0  0
 14 15  1  0  0  0  0
 14 28  1  0  0  0  0
 15 16  1  0  0  0  0
 15 29  1  0  0  0  0
 15 30  1  0  0  0  0
 16 17  1  0  0  0  0
 16 31  1  0  0  0  0
 16 32  1  0  0  0  0
 17 18  1  0  0  0  0
 17 33  1  0  0  0  0
 17 34  1  0  0  0  0
 18 19  1  0  0  0  0
 18 35  1  0  0  0  0
 18 36  1  0  0  0  0
 19 37  1  0  0  0  0
 19 38  1  0  0  0  0
M  END
$$$$
