ZINC000000034608      none
 OpenBabel11202420153D

 42 44  0  0  1  0  0  0  0  0999 V2000
   33.7386   38.8841   69.3212 C   0  0  0  0  0  0  0  0  0  0  0  0
   33.4621   37.4079   69.4452 C   0  0  0  0  0  0  0  0  0  0  0  0
   34.0441   36.6785   70.4637 C   0  0  0  0  0  0  0  0  0  0  0  0
   33.7960   35.3227   70.5740 C   0  0  0  0  0  0  0  0  0  0  0  0
   32.9595   34.6939   69.6699 C   0  0  0  0  0  0  0  0  0  0  0  0
   32.3697   35.4187   68.6532 C   0  0  0  0  0  0  0  0  0  0  0  0
   32.6173   36.7806   68.5391 C   0  0  0  0  0  0  0  0  0  0  0  0
   32.0211   37.5177   67.5100 N   0  0  0  0  0  0  0  0  0  0  0  0
   32.6458   37.6443   66.3225 C   0  0  0  0  0  0  0  0  0  0  0  0
   33.7247   37.1190   66.1458 O   0  0  0  0  0  0  0  0  0  0  0  0
   32.0037   38.4383   65.2142 C   0  0  2  0  0  0  0  0  0  0  0  0
   32.7590   38.8918   64.5723 H   0  0  0  0  0  0  0  0  0  0  0  0
   31.0501   39.5139   65.7879 C   0  0  0  0  0  0  0  0  0  0  0  0
   29.7063   38.8105   65.7951 C   0  0  0  0  0  0  0  0  0  0  0  0
   28.7965   39.0362   66.5575 O   0  0  0  0  0  0  0  0  0  0  0  0
   29.6963   37.8968   64.8139 O   0  0  0  0  0  0  0  0  0  0  0  0
   31.0434   37.5569   64.3932 C   0  0  0  0  0  0  0  0  0  0  0  0
   31.2221   37.8517   62.9051 C   0  0  0  0  0  0  0  0  0  0  0  0
   30.2654   36.9754   62.0931 C   0  0  0  0  0  0  0  0  0  0  0  0
   30.5654   35.5009   62.3708 C   0  0  0  0  0  0  0  0  0  0  0  0
   30.3728   35.2115   63.8606 C   0  0  0  0  0  0  0  0  0  0  0  0
   31.3295   36.0835   64.6771 C   0  0  0  0  0  0  0  0  0  0  0  0
   33.0025   39.4416   69.9003 H   0  0  0  0  0  0  0  0  0  0  0  0
   34.7377   39.0996   69.6999 H   0  0  0  0  0  0  0  0  0  0  0  0
   33.6758   39.1788   68.2737 H   0  0  0  0  0  0  0  0  0  0  0  0
   34.6974   37.1668   71.1716 H   0  0  0  0  0  0  0  0  0  0  0  0
   34.2561   34.7537   71.3684 H   0  0  0  0  0  0  0  0  0  0  0  0
   32.7678   33.6348   69.7589 H   0  0  0  0  0  0  0  0  0  0  0  0
   31.7165   34.9270   67.9476 H   0  0  0  0  0  0  0  0  0  0  0  0
   31.1584   37.9377   67.6513 H   0  0  0  0  0  0  0  0  0  0  0  0
   31.0231   40.3901   65.1400 H   0  0  0  0  0  0  0  0  0  0  0  0
   31.3442   39.7934   66.7996 H   0  0  0  0  0  0  0  0  0  0  0  0
   32.2496   37.6354   62.6127 H   0  0  0  0  0  0  0  0  0  0  0  0
   31.0032   38.9022   62.7138 H   0  0  0  0  0  0  0  0  0  0  0  0
   30.3987   37.1795   61.0307 H   0  0  0  0  0  0  0  0  0  0  0  0
   29.2374   37.1973   62.3797 H   0  0  0  0  0  0  0  0  0  0  0  0
   29.8874   34.8766   61.7889 H   0  0  0  0  0  0  0  0  0  0  0  0
   31.5947   35.2803   62.0880 H   0  0  0  0  0  0  0  0  0  0  0  0
   29.3446   35.4360   64.1445 H   0  0  0  0  0  0  0  0  0  0  0  0
   30.5826   34.1600   64.0566 H   0  0  0  0  0  0  0  0  0  0  0  0
   31.1867   35.8836   65.7390 H   0  0  0  0  0  0  0  0  0  0  0  0
   32.3580   35.8530   64.3992 H   0  0  0  0  0  0  0  0  0  0  0  0
  1  2  1  0  0  0  0
  1 23  1  0  0  0  0
  1 24  1  0  0  0  0
  1 25  1  0  0  0  0
  2  7  2  0  0  0  0
  2  3  1  0  0  0  0
  3  4  2  0  0  0  0
  3 26  1  0  0  0  0
  4  5  1  0  0  0  0
  4 27  1  0  0  0  0
  5  6  2  0  0  0  0
  5 28  1  0  0  0  0
  6  7  1  0  0  0  0
  6 29  1  0  0  0  0
  7  8  1  0  0  0  0
  8  9  1  0  0  0  0
  8 30  1  0  0  0  0
  9 10  2  0  0  0  0
  9 11  1  0  0  0  0
 11 12  1  6  0  0  0
 11 17  1  0  0  0  0
 11 13  1  0  0  0  0
 13 14  1  0  0  0  0
 13 31  1  0  0  0  0
 13 32  1  0  0  0  0
 14 15  2  0  0  0  0
 14 16  1  0  0  0  0
 16 17  1  0  0  0  0
 17 22  1  0  0  0  0
 17 18  1  0  0  0  0
 18 19  1  0  0  0  0
 18 33  1  0  0  0  0
 18 34  1  0  0  0  0
 19 20  1  0  0  0  0
 19 35  1  0  0  0  0
 19 36  1  0  0  0  0
 20 21  1  0  0  0  0
 20 37  1  0  0  0  0
 20 38  1  0  0  0  0
 21 22  1  0  0  0  0
 21 39  1  0  0  0  0
 21 40  1  0  0  0  0
 22 41  1  0  0  0  0
 22 42  1  0  0  0  0
M  END
$$$$
