ZINC000000033197      none
 OpenBabel11202420153D

 37 39  0  0  0  0  0  0  0  0999 V2000
   35.3603   39.5583   52.1596 C   0  0  0  0  0  0  0  0  0  0  0  0
   34.8826   39.5339   53.5886 C   0  0  0  0  0  0  0  0  0  0  0  0
   34.9160   40.5457   54.2563 O   0  0  0  0  0  0  0  0  0  0  0  0
   34.4185   38.3878   54.1247 N   0  0  0  0  0  0  0  0  0  0  0  0
   33.9793   38.3655   55.4389 C   0  0  0  0  0  0  0  0  0  0  0  0
   33.5195   37.3256   56.0424 N   0  0  0  0  0  0  0  0  0  0  0  0
   33.1305   37.4609   57.3265 C   0  0  0  0  0  0  0  0  0  0  0  0
   32.5986   36.4841   58.1953 C   0  0  0  0  0  0  0  0  0  0  0  0
   32.2572   36.8041   59.4733 C   0  0  0  0  0  0  0  0  0  0  0  0
   32.4259   38.1021   59.9504 C   0  0  0  0  0  0  0  0  0  0  0  0
   32.0705   38.4176   61.2674 N   0  0  0  0  0  0  0  0  0  0  0  0
   32.1483   37.4775   62.2300 C   0  0  0  0  0  0  0  0  0  0  0  0
   32.5273   36.3551   61.9548 O   0  0  0  0  0  0  0  0  0  0  0  0
   31.7739   37.8099   63.6174 C   0  0  0  0  0  0  0  0  0  0  0  0
   30.8479   38.8268   63.8684 C   0  0  0  0  0  0  0  0  0  0  0  0
   30.5010   39.1349   65.1639 C   0  0  0  0  0  0  0  0  0  0  0  0
   31.0709   38.4352   66.2240 C   0  0  0  0  0  0  0  0  0  0  0  0
   30.7187   38.7491   67.5320 N   0  0  0  0  0  0  0  0  0  0  0  0
   31.9973   37.4255   65.9775 C   0  0  0  0  0  0  0  0  0  0  0  0
   32.3445   37.1091   64.6841 C   0  0  0  0  0  0  0  0  0  0  0  0
   32.9403   39.0795   59.1178 C   0  0  0  0  0  0  0  0  0  0  0  0
   33.2982   38.7623   57.8097 C   0  0  0  0  0  0  0  0  0  0  0  0
   33.9722   39.7532   56.5183 S   0  0  0  0  0  0  0  0  0  0  0  0
   35.2549   38.5645   51.7243 H   0  0  0  0  0  0  0  0  0  0  0  0
   34.7637   40.2700   51.5891 H   0  0  0  0  0  0  0  0  0  0  0  0
   36.4080   39.8578   52.1316 H   0  0  0  0  0  0  0  0  0  0  0  0
   34.3918   37.5786   53.5905 H   0  0  0  0  0  0  0  0  0  0  0  0
   32.4609   35.4728   57.8424 H   0  0  0  0  0  0  0  0  0  0  0  0
   31.8508   36.0441   60.1242 H   0  0  0  0  0  0  0  0  0  0  0  0
   31.7682   39.3127   61.4871 H   0  0  0  0  0  0  0  0  0  0  0  0
   30.4056   39.3703   63.0466 H   0  0  0  0  0  0  0  0  0  0  0  0
   29.7860   39.9206   65.3587 H   0  0  0  0  0  0  0  0  0  0  0  0
   30.0763   39.4552   67.7051 H   0  0  0  0  0  0  0  0  0  0  0  0
   31.1122   38.2596   68.2712 H   0  0  0  0  0  0  0  0  0  0  0  0
   32.4408   36.8873   66.8021 H   0  0  0  0  0  0  0  0  0  0  0  0
   33.0602   36.3231   64.4934 H   0  0  0  0  0  0  0  0  0  0  0  0
   33.0679   40.0878   59.4832 H   0  0  0  0  0  0  0  0  0  0  0  0
  1  2  1  0  0  0  0
  1 24  1  0  0  0  0
  1 25  1  0  0  0  0
  1 26  1  0  0  0  0
  2  3  2  0  0  0  0
  2  4  1  0  0  0  0
  4  5  1  0  0  0  0
  4 27  1  0  0  0  0
  5 23  1  0  0  0  0
  5  6  2  0  0  0  0
  6  7  1  0  0  0  0
  7 22  2  0  0  0  0
  7  8  1  0  0  0  0
  8  9  2  0  0  0  0
  8 28  1  0  0  0  0
  9 10  1  0  0  0  0
  9 29  1  0  0  0  0
 10 11  1  0  0  0  0
 10 21  2  0  0  0  0
 11 12  1  0  0  0  0
 11 30  1  0  0  0  0
 12 13  2  0  0  0  0
 12 14  1  0  0  0  0
 14 20  2  0  0  0  0
 14 15  1  0  0  0  0
 15 16  2  0  0  0  0
 15 31  1  0  0  0  0
 16 17  1  0  0  0  0
 16 32  1  0  0  0  0
 17 18  1  0  0  0  0
 17 19  2  0  0  0  0
 18 33  1  0  0  0  0
 18 34  1  0  0  0  0
 19 20  1  0  0  0  0
 19 35  1  0  0  0  0
 20 36  1  0  0  0  0
 21 22  1  0  0  0  0
 21 37  1  0  0  0  0
 22 23  1  0  0  0  0
M  END
$$$$
