ZINC000000033788      none
 OpenBabel11202420153D

 42 44  0  0  1  0  0  0  0  0999 V2000
   30.0405   39.4949   65.6388 C   0  0  0  0  0  0  0  0  0  0  0  0
   30.7394   38.5951   65.9220 C   0  0  0  0  0  0  0  0  0  0  0  0
   31.6155   37.4668   66.2771 C   0  0  1  0  0  0  0  0  0  0  0  0
   33.0164   37.9907   66.5997 C   0  0  0  0  0  0  0  0  0  0  0  0
   31.0470   36.7448   67.5003 C   0  0  0  0  0  0  0  0  0  0  0  0
   31.9578   35.5721   67.8694 C   0  0  0  0  0  0  0  0  0  0  0  0
   31.6908   36.5335   65.1504 N   0  0  0  0  0  0  0  0  0  0  0  0
   30.5708   35.9431   64.6885 C   0  0  0  0  0  0  0  0  0  0  0  0
   29.5006   36.1845   65.2055 O   0  0  0  0  0  0  0  0  0  0  0  0
   30.6482   34.9830   63.5294 C   0  0  0  0  0  0  0  0  0  0  0  0
   31.1927   35.6744   62.3581 N   0  0  0  0  0  0  0  0  0  0  0  0
   31.4211   35.1302   61.0846 C   0  0  0  0  0  0  0  0  0  0  0  0
   31.1845   33.8260   60.6542 C   0  0  0  0  0  0  0  0  0  0  0  0
   31.4680   33.4457   59.3484 C   0  0  0  0  0  0  0  0  0  0  0  0
   31.9856   34.3115   58.4302 C   0  0  0  0  0  0  0  0  0  0  0  0
   32.2417   35.6373   58.8182 C   0  0  0  0  0  0  0  0  0  0  0  0
   32.7731   36.6049   57.9493 C   0  0  0  0  0  0  0  0  0  0  0  0
   32.9937   37.8722   58.4023 C   0  0  0  0  0  0  0  0  0  0  0  0
   32.7007   38.2354   59.7227 C   0  0  0  0  0  0  0  0  0  0  0  0
   32.1903   37.3237   60.5721 C   0  0  0  0  0  0  0  0  0  0  0  0
   31.9499   36.0135   60.1457 C   0  0  0  0  0  0  0  0  0  0  0  0
   31.6642   37.2792   62.2610 S   0  0  0  0  0  0  0  0  0  0  0  0
   30.4944   38.0784   62.3703 O   0  0  0  0  0  0  0  0  0  0  0  0
   32.8192   37.4380   63.0734 O   0  0  0  0  0  0  0  0  0  0  0  0
   29.4155   40.2997   65.3855 H   0  0  0  0  0  0  0  0  0  0  0  0
   33.4215   38.5052   65.7281 H   0  0  0  0  0  0  0  0  0  0  0  0
   32.9605   38.6852   67.4379 H   0  0  0  0  0  0  0  0  0  0  0  0
   33.6652   37.1553   66.8626 H   0  0  0  0  0  0  0  0  0  0  0  0
   30.9910   37.4392   68.3386 H   0  0  0  0  0  0  0  0  0  0  0  0
   30.0491   36.3714   67.2706 H   0  0  0  0  0  0  0  0  0  0  0  0
   32.0137   34.8777   67.0311 H   0  0  0  0  0  0  0  0  0  0  0  0
   32.9557   35.9454   68.0992 H   0  0  0  0  0  0  0  0  0  0  0  0
   31.5528   35.0578   68.7409 H   0  0  0  0  0  0  0  0  0  0  0  0
   32.5468   36.3403   64.7369 H   0  0  0  0  0  0  0  0  0  0  0  0
   29.6502   34.6097   63.2996 H   0  0  0  0  0  0  0  0  0  0  0  0
   31.2970   34.1475   63.7924 H   0  0  0  0  0  0  0  0  0  0  0  0
   30.7753   33.1025   61.3438 H   0  0  0  0  0  0  0  0  0  0  0  0
   31.2716   32.4266   59.0494 H   0  0  0  0  0  0  0  0  0  0  0  0
   32.1946   33.9837   57.4225 H   0  0  0  0  0  0  0  0  0  0  0  0
   33.0061   36.3462   56.9270 H   0  0  0  0  0  0  0  0  0  0  0  0
   33.4032   38.6108   57.7291 H   0  0  0  0  0  0  0  0  0  0  0  0
   32.8834   39.2452   60.0592 H   0  0  0  0  0  0  0  0  0  0  0  0
  1  2  3  0  0  0  0
  1 25  1  0  0  0  0
  3  2  1  6  0  0  0
  3  4  1  0  0  0  0
  3  5  1  0  0  0  0
  3  7  1  0  0  0  0
  4 26  1  0  0  0  0
  4 27  1  0  0  0  0
  4 28  1  0  0  0  0
  5  6  1  0  0  0  0
  5 29  1  0  0  0  0
  5 30  1  0  0  0  0
  6 31  1  0  0  0  0
  6 32  1  0  0  0  0
  6 33  1  0  0  0  0
  7  8  1  0  0  0  0
  7 34  1  0  0  0  0
  8  9  2  0  0  0  0
  8 10  1  0  0  0  0
 10 11  1  0  0  0  0
 10 35  1  0  0  0  0
 10 36  1  0  0  0  0
 11 22  1  0  0  0  0
 11 12  1  0  0  0  0
 12 21  2  0  0  0  0
 12 13  1  0  0  0  0
 13 14  2  0  0  0  0
 13 37  1  0  0  0  0
 14 15  1  0  0  0  0
 14 38  1  0  0  0  0
 15 16  2  0  0  0  0
 15 39  1  0  0  0  0
 16 21  1  0  0  0  0
 16 17  1  0  0  0  0
 17 18  2  0  0  0  0
 17 40  1  0  0  0  0
 18 19  1  0  0  0  0
 18 41  1  0  0  0  0
 19 20  2  0  0  0  0
 19 42  1  0  0  0  0
 20 21  1  0  0  0  0
 20 22  1  0  0  0  0
 22 23  2  0  0  0  0
 22 24  2  0  0  0  0
M  END
$$$$
