ZINC000000038310      none
 OpenBabel11202420153D

 43 46  0  0  0  0  0  0  0  0999 V2000
   33.4612   32.9731   56.0004 C   0  0  0  0  0  0  0  0  0  0  0  0
   33.2077   34.4273   56.3036 C   0  0  0  0  0  0  0  0  0  0  0  0
   33.5987   35.7470   55.2178 S   0  0  0  0  0  0  0  0  0  0  0  0
   32.9895   36.9506   56.3440 C   0  0  0  0  0  0  0  0  0  0  0  0
   32.9237   38.2858   56.2547 N   0  0  0  0  0  0  0  0  0  0  0  0
   32.4211   39.0061   57.2301 C   0  0  0  0  0  0  0  0  0  0  0  0
   31.9575   38.4602   58.3399 N   0  0  0  0  0  0  0  0  0  0  0  0
   31.9805   37.1477   58.5191 C   0  0  0  0  0  0  0  0  0  0  0  0
   31.4920   36.5896   59.6869 N   0  0  0  0  0  0  0  0  0  0  0  0
   30.0508   36.8406   59.8279 C   0  0  0  0  0  0  0  0  0  0  0  0
   29.5348   36.1414   61.0879 C   0  0  0  0  0  0  0  0  0  0  0  0
   30.2703   36.6408   62.2580 N   0  0  0  0  0  0  0  0  0  0  0  0
   29.7516   36.0481   63.4980 C   0  0  0  0  0  0  0  0  0  0  0  0
   31.7114   36.3898   62.1172 C   0  0  0  0  0  0  0  0  0  0  0  0
   32.2275   37.0889   60.8571 C   0  0  0  0  0  0  0  0  0  0  0  0
   32.5185   36.3248   57.4985 C   0  0  0  0  0  0  0  0  0  0  0  0
   32.6580   34.8753   57.4311 C   0  0  0  0  0  0  0  0  0  0  0  0
   32.2290   33.9755   58.5278 C   0  0  0  0  0  0  0  0  0  0  0  0
   30.9303   33.4685   58.5497 C   0  0  0  0  0  0  0  0  0  0  0  0
   30.5383   32.6265   59.5704 C   0  0  0  0  0  0  0  0  0  0  0  0
   31.4275   32.2945   60.5768 C   0  0  0  0  0  0  0  0  0  0  0  0
   32.7156   32.7991   60.5635 C   0  0  0  0  0  0  0  0  0  0  0  0
   33.1208   33.6373   59.5450 C   0  0  0  0  0  0  0  0  0  0  0  0
   33.9176   32.8816   55.0149 H   0  0  0  0  0  0  0  0  0  0  0  0
   34.1324   32.5570   56.7517 H   0  0  0  0  0  0  0  0  0  0  0  0
   32.5170   32.4289   56.0156 H   0  0  0  0  0  0  0  0  0  0  0  0
   32.3850   40.0800   57.1215 H   0  0  0  0  0  0  0  0  0  0  0  0
   29.8746   37.9131   59.9092 H   0  0  0  0  0  0  0  0  0  0  0  0
   29.5268   36.4507   58.9553 H   0  0  0  0  0  0  0  0  0  0  0  0
   29.6862   35.0660   60.9949 H   0  0  0  0  0  0  0  0  0  0  0  0
   28.4719   36.3498   61.2103 H   0  0  0  0  0  0  0  0  0  0  0  0
   30.2676   36.4849   64.3531 H   0  0  0  0  0  0  0  0  0  0  0  0
   28.6831   36.2486   63.5774 H   0  0  0  0  0  0  0  0  0  0  0  0
   29.9190   34.9712   63.4839 H   0  0  0  0  0  0  0  0  0  0  0  0
   31.8876   35.3172   62.0358 H   0  0  0  0  0  0  0  0  0  0  0  0
   32.2357   36.7794   62.9897 H   0  0  0  0  0  0  0  0  0  0  0  0
   33.2902   36.8802   60.7349 H   0  0  0  0  0  0  0  0  0  0  0  0
   32.0764   38.1644   60.9499 H   0  0  0  0  0  0  0  0  0  0  0  0
   30.2339   33.7306   57.7669 H   0  0  0  0  0  0  0  0  0  0  0  0
   29.5341   32.2293   59.5857 H   0  0  0  0  0  0  0  0  0  0  0  0
   31.1150   31.6386   61.3757 H   0  0  0  0  0  0  0  0  0  0  0  0
   33.4053   32.5367   61.3521 H   0  0  0  0  0  0  0  0  0  0  0  0
   34.1266   34.0304   59.5356 H   0  0  0  0  0  0  0  0  0  0  0  0
  1  2  1  0  0  0  0
  1 24  1  0  0  0  0
  1 25  1  0  0  0  0
  1 26  1  0  0  0  0
  2 17  2  0  0  0  0
  2  3  1  0  0  0  0
  3  4  1  0  0  0  0
  4 16  2  0  0  0  0
  4  5  1  0  0  0  0
  5  6  2  0  0  0  0
  6  7  1  0  0  0  0
  6 27  1  0  0  0  0
  7  8  2  0  0  0  0
  8  9  1  0  0  0  0
  8 16  1  0  0  0  0
  9 15  1  0  0  0  0
  9 10  1  0  0  0  0
 10 11  1  0  0  0  0
 10 28  1  0  0  0  0
 10 29  1  0  0  0  0
 11 12  1  0  0  0  0
 11 30  1  0  0  0  0
 11 31  1  0  0  0  0
 12 13  1  0  0  0  0
 12 14  1  0  0  0  0
 13 32  1  0  0  0  0
 13 33  1  0  0  0  0
 13 34  1  0  0  0  0
 14 15  1  0  0  0  0
 14 35  1  0  0  0  0
 14 36  1  0  0  0  0
 15 37  1  0  0  0  0
 15 38  1  0  0  0  0
 16 17  1  0  0  0  0
 17 18  1  0  0  0  0
 18 23  2  0  0  0  0
 18 19  1  0  0  0  0
 19 20  2  0  0  0  0
 19 39  1  0  0  0  0
 20 21  1  0  0  0  0
 20 40  1  0  0  0  0
 21 22  2  0  0  0  0
 21 41  1  0  0  0  0
 22 23  1  0  0  0  0
 22 42  1  0  0  0  0
 23 43  1  0  0  0  0
M  END
$$$$
