ZINC000000040769      none
 OpenBabel11202420153D

 33 34  0  0  0  0  0  0  0  0999 V2000
   32.4767   37.4428   68.4529 C   0  0  0  0  0  0  0  0  0  0  0  0
   32.6309   38.3716   67.2469 C   0  0  0  0  0  0  0  0  0  0  0  0
   32.7819   37.5475   65.9942 C   0  0  0  0  0  0  0  0  0  0  0  0
   33.8959   37.1306   65.4868 N   0  0  0  0  0  0  0  0  0  0  0  0
   33.8447   36.4483   64.4276 N   0  0  0  0  0  0  0  0  0  0  0  0
   32.6697   36.2113   63.9181 C   0  0  0  0  0  0  0  0  0  0  0  0
   32.4085   35.4856   62.7654 N   0  0  0  0  0  0  0  0  0  0  0  0
   31.0274   35.3019   62.3128 C   0  0  0  0  0  0  0  0  0  0  0  0
   31.0027   35.1777   60.7880 C   0  0  0  0  0  0  0  0  0  0  0  0
   31.5704   36.4308   60.1728 C   0  0  0  0  0  0  0  0  0  0  0  0
   32.2258   36.3788   58.9518 C   0  0  0  0  0  0  0  0  0  0  0  0
   32.7273   37.5574   58.4215 C   0  0  0  0  0  0  0  0  0  0  0  0
   32.5633   38.7359   59.1249 C   0  0  0  0  0  0  0  0  0  0  0  0
   33.1044   40.0231   58.5580 C   0  0  0  0  0  0  0  0  0  0  0  0
   31.9392   38.7469   60.2864 N   0  0  0  0  0  0  0  0  0  0  0  0
   31.4495   37.6452   60.8209 C   0  0  0  0  0  0  0  0  0  0  0  0
   31.4702   36.9866   64.9552 S   0  0  0  0  0  0  0  0  0  0  0  0
   31.5932   36.8184   68.3200 H   0  0  0  0  0  0  0  0  0  0  0  0
   33.3596   36.8094   68.5389 H   0  0  0  0  0  0  0  0  0  0  0  0
   32.3675   38.0388   69.3589 H   0  0  0  0  0  0  0  0  0  0  0  0
   33.5144   38.9960   67.3798 H   0  0  0  0  0  0  0  0  0  0  0  0
   31.7480   39.0049   67.1609 H   0  0  0  0  0  0  0  0  0  0  0  0
   33.1403   35.0999   62.2589 H   0  0  0  0  0  0  0  0  0  0  0  0
   30.4279   36.1597   62.6172 H   0  0  0  0  0  0  0  0  0  0  0  0
   30.6169   34.3954   62.7578 H   0  0  0  0  0  0  0  0  0  0  0  0
   29.9751   35.0409   60.4512 H   0  0  0  0  0  0  0  0  0  0  0  0
   31.6021   34.3198   60.4835 H   0  0  0  0  0  0  0  0  0  0  0  0
   32.3388   35.4431   58.4244 H   0  0  0  0  0  0  0  0  0  0  0  0
   33.2400   37.5547   57.4710 H   0  0  0  0  0  0  0  0  0  0  0  0
   32.3418   40.4966   57.9396 H   0  0  0  0  0  0  0  0  0  0  0  0
   33.3782   40.6926   59.3735 H   0  0  0  0  0  0  0  0  0  0  0  0
   33.9844   39.8112   57.9509 H   0  0  0  0  0  0  0  0  0  0  0  0
   30.9440   37.6935   61.7741 H   0  0  0  0  0  0  0  0  0  0  0  0
  1  2  1  0  0  0  0
  1 18  1  0  0  0  0
  1 19  1  0  0  0  0
  1 20  1  0  0  0  0
  2  3  1  0  0  0  0
  2 21  1  0  0  0  0
  2 22  1  0  0  0  0
  3 17  1  0  0  0  0
  3  4  2  0  0  0  0
  4  5  1  0  0  0  0
  5  6  2  0  0  0  0
  6  7  1  0  0  0  0
  6 17  1  0  0  0  0
  7  8  1  0  0  0  0
  7 23  1  0  0  0  0
  8  9  1  0  0  0  0
  8 24  1  0  0  0  0
  8 25  1  0  0  0  0
  9 10  1  0  0  0  0
  9 26  1  0  0  0  0
  9 27  1  0  0  0  0
 10 16  2  0  0  0  0
 10 11  1  0  0  0  0
 11 12  2  0  0  0  0
 11 28  1  0  0  0  0
 12 13  1  0  0  0  0
 12 29  1  0  0  0  0
 13 14  1  0  0  0  0
 13 15  2  0  0  0  0
 14 30  1  0  0  0  0
 14 31  1  0  0  0  0
 14 32  1  0  0  0  0
 15 16  1  0  0  0  0
 16 33  1  0  0  0  0
M  END
$$$$
