ZINC000000032824      none
 OpenBabel11202420153D

 25 25  0  0  0  0  0  0  0  0999 V2000
   29.8694   38.4921   63.3779 C   0  0  0  0  0  0  0  0  0  0  0  0
   30.3447   38.0835   61.9822 C   0  0  0  0  0  0  0  0  0  0  0  0
   31.7045   36.8921   62.1313 S   0  0  0  0  0  0  0  0  0  0  0  0
   32.1124   36.5441   60.4529 C   0  0  0  0  0  0  0  0  0  0  0  0
   32.5297   37.5668   59.6083 C   0  0  0  0  0  0  0  0  0  0  0  0
   32.8528   37.2908   58.2964 C   0  0  0  0  0  0  0  0  0  0  0  0
   33.3019   38.3832   57.4043 N   0  0  0  0  0  0  0  0  0  0  0  0
   33.3850   39.5215   57.8296 O   0  0  0  0  0  0  0  0  0  0  0  0
   33.5882   38.1439   56.2449 O   0  0  0  0  0  0  0  0  0  0  0  0
   32.7548   35.9975   57.8061 C   0  0  0  0  0  0  0  0  0  0  0  0
   32.3384   34.9718   58.6256 C   0  0  0  0  0  0  0  0  0  0  0  0
   32.0122   35.2333   59.9590 C   0  0  0  0  0  0  0  0  0  0  0  0
   31.5653   34.1405   60.8413 C   0  0  0  0  0  0  0  0  0  0  0  0
   31.2514   34.3976   62.1264 N   0  0  0  0  0  0  0  0  0  0  0  0
   31.4799   33.0068   60.4096 O   0  0  0  0  0  0  0  0  0  0  0  0
   29.5222   37.6101   63.9162 H   0  0  0  0  0  0  0  0  0  0  0  0
   30.6948   38.9492   63.9235 H   0  0  0  0  0  0  0  0  0  0  0  0
   29.0523   39.2080   63.2883 H   0  0  0  0  0  0  0  0  0  0  0  0
   29.5192   37.6264   61.4366 H   0  0  0  0  0  0  0  0  0  0  0  0
   30.6918   38.9655   61.4439 H   0  0  0  0  0  0  0  0  0  0  0  0
   32.6045   38.5777   59.9812 H   0  0  0  0  0  0  0  0  0  0  0  0
   33.0062   35.7934   56.7758 H   0  0  0  0  0  0  0  0  0  0  0  0
   32.2637   33.9666   58.2380 H   0  0  0  0  0  0  0  0  0  0  0  0
   31.3195   35.3019   62.4709 H   0  0  0  0  0  0  0  0  0  0  0  0
   30.9573   33.6784   62.7071 H   0  0  0  0  0  0  0  0  0  0  0  0
  1  2  1  0  0  0  0
  1 16  1  0  0  0  0
  1 17  1  0  0  0  0
  1 18  1  0  0  0  0
  2  3  1  0  0  0  0
  2 19  1  0  0  0  0
  2 20  1  0  0  0  0
  3  4  1  0  0  0  0
  4 12  2  0  0  0  0
  4  5  1  0  0  0  0
  5  6  2  0  0  0  0
  5 21  1  0  0  0  0
  6  7  1  0  0  0  0
  6 10  1  0  0  0  0
  7  8  2  0  0  0  0
  7  9  2  0  0  0  0
 10 11  2  0  0  0  0
 10 22  1  0  0  0  0
 11 12  1  0  0  0  0
 11 23  1  0  0  0  0
 12 13  1  0  0  0  0
 13 14  1  0  0  0  0
 13 15  2  0  0  0  0
 14 24  1  0  0  0  0
 14 25  1  0  0  0  0
M  END
$$$$
