ZINC000000004785      none
 OpenBabel11202420153D

 30 32  0  0  0  0  0  0  0  0999 V2000
   28.8454   35.2840   64.4532 N   0  0  0  0  0  0  0  0  0  0  0  0
   29.0858   36.4145   65.1465 C   0  0  0  0  0  0  0  0  0  0  0  0
   28.5424   36.5975   66.2152 O   0  0  0  0  0  0  0  0  0  0  0  0
   29.9302   37.3415   64.6523 N   0  0  0  0  0  0  0  0  0  0  0  0
   30.1686   38.4739   65.3494 C   0  0  0  0  0  0  0  0  0  0  0  0
   29.0560   39.4065   65.6127 C   0  0  0  0  0  0  0  0  0  0  0  0
   29.2745   40.5305   66.2592 C   0  0  0  0  0  0  0  0  0  0  0  0
   30.6340   40.8590   66.7215 C   0  0  0  0  0  0  0  0  0  0  0  0
   31.6223   40.0208   66.5004 C   0  0  0  0  0  0  0  0  0  0  0  0
   31.3745   38.7506   65.7905 C   0  0  0  0  0  0  0  0  0  0  0  0
   32.4727   37.7921   65.6274 C   0  0  0  0  0  0  0  0  0  0  0  0
   32.6747   37.0523   64.5849 C   0  0  0  0  0  0  0  0  0  0  0  0
   31.8410   37.0383   63.3783 C   0  0  0  0  0  0  0  0  0  0  0  0
   32.4844   36.9111   62.0557 C   0  0  0  0  0  0  0  0  0  0  0  0
   31.7517   36.8663   60.9652 C   0  0  0  0  0  0  0  0  0  0  0  0
   30.2839   36.9430   61.0619 C   0  0  0  0  0  0  0  0  0  0  0  0
   29.7108   37.0696   62.2386 C   0  0  0  0  0  0  0  0  0  0  0  0
   30.5338   37.1343   63.4615 C   0  0  0  0  0  0  0  0  0  0  0  0
   29.2800   35.1377   63.5984 H   0  0  0  0  0  0  0  0  0  0  0  0
   28.2377   34.6169   64.8088 H   0  0  0  0  0  0  0  0  0  0  0  0
   28.0594   39.1653   65.2736 H   0  0  0  0  0  0  0  0  0  0  0  0
   28.4578   41.2096   66.4547 H   0  0  0  0  0  0  0  0  0  0  0  0
   30.8187   41.7877   67.2411 H   0  0  0  0  0  0  0  0  0  0  0  0
   32.6190   40.2624   66.8391 H   0  0  0  0  0  0  0  0  0  0  0  0
   33.1713   37.6959   66.4455 H   0  0  0  0  0  0  0  0  0  0  0  0
   33.5276   36.3902   64.6053 H   0  0  0  0  0  0  0  0  0  0  0  0
   33.5605   36.8550   61.9839 H   0  0  0  0  0  0  0  0  0  0  0  0
   32.2256   36.7730   59.9992 H   0  0  0  0  0  0  0  0  0  0  0  0
   29.6795   36.8957   60.1681 H   0  0  0  0  0  0  0  0  0  0  0  0
   28.6346   37.1261   62.3102 H   0  0  0  0  0  0  0  0  0  0  0  0
  1  2  1  0  0  0  0
  1 19  1  0  0  0  0
  1 20  1  0  0  0  0
  2  3  2  0  0  0  0
  2  4  1  0  0  0  0
  4 18  1  0  0  0  0
  4  5  1  0  0  0  0
  5 10  2  0  0  0  0
  5  6  1  0  0  0  0
  6  7  2  0  0  0  0
  6 21  1  0  0  0  0
  7  8  1  0  0  0  0
  7 22  1  0  0  0  0
  8  9  2  0  0  0  0
  8 23  1  0  0  0  0
  9 10  1  0  0  0  0
  9 24  1  0  0  0  0
 10 11  1  0  0  0  0
 11 12  2  0  0  0  0
 11 25  1  0  0  0  0
 12 13  1  0  0  0  0
 12 26  1  0  0  0  0
 13 18  2  0  0  0  0
 13 14  1  0  0  0  0
 14 15  2  0  0  0  0
 14 27  1  0  0  0  0
 15 16  1  0  0  0  0
 15 28  1  0  0  0  0
 16 17  2  0  0  0  0
 16 29  1  0  0  0  0
 17 18  1  0  0  0  0
 17 30  1  0  0  0  0
M  END
$$$$
