ZINC000000038879      none
 OpenBabel11202420153D

 34 35  0  0  0  0  0  0  0  0999 V2000
   34.1166   39.8845   56.1889 C   0  0  0  0  0  0  0  0  0  0  0  0
   34.3793   39.2457   54.8495 C   0  0  0  0  0  0  0  0  0  0  0  0
   34.8377   40.0128   53.7957 C   0  0  0  0  0  0  0  0  0  0  0  0
   35.0795   39.4267   52.5662 C   0  0  0  0  0  0  0  0  0  0  0  0
   35.6554   40.3926   51.2437 Cl  0  0  0  0  0  0  0  0  0  0  0  0
   34.8683   38.0704   52.3907 C   0  0  0  0  0  0  0  0  0  0  0  0
   34.4047   37.3011   53.4400 C   0  0  0  0  0  0  0  0  0  0  0  0
   34.1617   37.8872   54.6740 C   0  0  0  0  0  0  0  0  0  0  0  0
   33.7112   37.1308   55.7095 O   0  0  0  0  0  0  0  0  0  0  0  0
   33.5093   35.7389   55.4567 C   0  0  0  0  0  0  0  0  0  0  0  0
   33.0122   35.0674   56.7109 C   0  0  0  0  0  0  0  0  0  0  0  0
   32.7772   33.8774   56.7093 O   0  0  0  0  0  0  0  0  0  0  0  0
   32.8284   35.7890   57.8342 N   0  0  0  0  0  0  0  0  0  0  0  0
   32.3679   35.1672   58.9954 C   0  0  0  0  0  0  0  0  0  0  0  0
   31.6094   35.8862   59.9134 C   0  0  0  0  0  0  0  0  0  0  0  0
   31.1485   35.2744   61.0576 C   0  0  0  0  0  0  0  0  0  0  0  0
   31.4536   33.9325   61.3019 C   0  0  0  0  0  0  0  0  0  0  0  0
   30.9818   33.2948   62.4941 C   0  0  0  0  0  0  0  0  0  0  0  0
   30.6074   32.7887   63.4398 N   0  0  0  0  0  0  0  0  0  0  0  0
   32.2207   33.2146   60.3800 C   0  0  0  0  0  0  0  0  0  0  0  0
   32.6731   33.8314   59.2350 C   0  0  0  0  0  0  0  0  0  0  0  0
   35.0227   39.8467   56.7935 H   0  0  0  0  0  0  0  0  0  0  0  0
   33.8195   40.9232   56.0440 H   0  0  0  0  0  0  0  0  0  0  0  0
   33.3174   39.3456   56.6979 H   0  0  0  0  0  0  0  0  0  0  0  0
   35.0070   41.0706   53.9320 H   0  0  0  0  0  0  0  0  0  0  0  0
   35.0619   37.6137   51.4313 H   0  0  0  0  0  0  0  0  0  0  0  0
   34.2357   36.2435   53.3014 H   0  0  0  0  0  0  0  0  0  0  0  0
   32.7725   35.6169   54.6627 H   0  0  0  0  0  0  0  0  0  0  0  0
   34.4518   35.2848   55.1506 H   0  0  0  0  0  0  0  0  0  0  0  0
   33.0162   36.7407   57.8355 H   0  0  0  0  0  0  0  0  0  0  0  0
   31.3781   36.9245   59.7263 H   0  0  0  0  0  0  0  0  0  0  0  0
   30.5559   35.8321   61.7678 H   0  0  0  0  0  0  0  0  0  0  0  0
   32.4586   32.1777   60.5656 H   0  0  0  0  0  0  0  0  0  0  0  0
   33.2658   33.2774   58.5222 H   0  0  0  0  0  0  0  0  0  0  0  0
  1  2  1  0  0  0  0
  1 22  1  0  0  0  0
  1 23  1  0  0  0  0
  1 24  1  0  0  0  0
  2  8  2  0  0  0  0
  2  3  1  0  0  0  0
  3  4  2  0  0  0  0
  3 25  1  0  0  0  0
  4  5  1  0  0  0  0
  4  6  1  0  0  0  0
  6  7  2  0  0  0  0
  6 26  1  0  0  0  0
  7  8  1  0  0  0  0
  7 27  1  0  0  0  0
  8  9  1  0  0  0  0
  9 10  1  0  0  0  0
 10 11  1  0  0  0  0
 10 28  1  0  0  0  0
 10 29  1  0  0  0  0
 11 12  2  0  0  0  0
 11 13  1  0  0  0  0
 13 14  1  0  0  0  0
 13 30  1  0  0  0  0
 14 21  2  0  0  0  0
 14 15  1  0  0  0  0
 15 16  2  0  0  0  0
 15 31  1  0  0  0  0
 16 17  1  0  0  0  0
 16 32  1  0  0  0  0
 17 18  1  0  0  0  0
 17 20  2  0  0  0  0
 18 19  3  0  0  0  0
 20 21  1  0  0  0  0
 20 33  1  0  0  0  0
 21 34  1  0  0  0  0
M  END
$$$$
