ZINC000000006138      none
 OpenBabel11202420153D

 42 42  0  0  1  0  0  0  0  0999 V2000
   32.3003   36.7040   59.4567 C   0  0  0  0  0  0  0  0  0  0  0  0
   31.4925   36.8164   60.7512 C   0  0  0  0  0  0  0  0  0  0  0  0
   30.2097   35.9921   60.6251 C   0  0  0  0  0  0  0  0  0  0  0  0
   31.1341   38.2823   61.0032 C   0  0  0  0  0  0  0  0  0  0  0  0
   30.3263   38.3946   62.2977 C   0  0  0  0  0  0  0  0  0  0  0  0
   31.1598   37.8653   63.4665 C   0  0  0  0  0  0  0  0  0  0  0  0
   30.3863   37.9728   64.7060 N   0  0  0  0  0  0  0  0  0  0  0  0
   30.4625   39.0922   65.4528 C   0  0  0  0  0  0  0  0  0  0  0  0
   31.1711   40.0104   65.0986 O   0  0  0  0  0  0  0  0  0  0  0  0
   29.6670   39.2027   66.7280 C   0  0  1  0  0  0  0  0  0  0  0  0
   29.0950   38.2874   66.8799 H   0  0  0  0  0  0  0  0  0  0  0  0
   30.5816   39.4023   67.8599 N   0  3  0  0  0  0  0  0  0  0  0  0
   30.0490   39.4764   68.7136 H   0  0  0  0  0  0  0  0  0  0  0  0
   31.2130   38.6180   67.9244 H   0  0  0  0  0  0  0  0  0  0  0  0
   31.1111   40.2497   67.7192 H   0  0  0  0  0  0  0  0  0  0  0  0
   28.7094   40.3921   66.6302 C   0  0  0  0  0  0  0  0  0  0  0  0
   27.5845   40.2266   67.6540 C   0  0  0  0  0  0  0  0  0  0  0  0
   28.1719   40.1674   69.0405 C   0  0  0  0  0  0  0  0  0  0  0  0
   27.9959   39.1812   69.7355 O   0  0  0  0  0  0  0  0  0  0  0  0
   28.8230   41.1057   69.4673 O   0  0  0  0  0  1  0  0  0  0  0  0
   31.5183   36.3994   63.2145 C   0  0  0  0  0  0  0  0  0  0  0  0
   32.3260   36.2870   61.9200 C   0  0  0  0  0  0  0  0  0  0  0  0
   32.5556   35.6597   59.2772 H   0  0  0  0  0  0  0  0  0  0  0  0
   31.7064   37.0812   58.6241 H   0  0  0  0  0  0  0  0  0  0  0  0
   33.2141   37.2913   59.5465 H   0  0  0  0  0  0  0  0  0  0  0  0
   29.6343   36.0721   61.5474 H   0  0  0  0  0  0  0  0  0  0  0  0
   29.6159   36.3692   59.7924 H   0  0  0  0  0  0  0  0  0  0  0  0
   30.4650   34.9478   60.4456 H   0  0  0  0  0  0  0  0  0  0  0  0
   32.0480   38.8695   61.0931 H   0  0  0  0  0  0  0  0  0  0  0  0
   30.5403   38.6594   60.1706 H   0  0  0  0  0  0  0  0  0  0  0  0
   29.4125   37.8074   62.2079 H   0  0  0  0  0  0  0  0  0  0  0  0
   30.0709   39.4390   62.4772 H   0  0  0  0  0  0  0  0  0  0  0  0
   32.0737   38.4525   63.5563 H   0  0  0  0  0  0  0  0  0  0  0  0
   29.8196   37.2384   64.9893 H   0  0  0  0  0  0  0  0  0  0  0  0
   29.2534   41.3142   66.8340 H   0  0  0  0  0  0  0  0  0  0  0  0
   28.2844   40.4349   65.6274 H   0  0  0  0  0  0  0  0  0  0  0  0
   26.9023   41.0739   67.5843 H   0  0  0  0  0  0  0  0  0  0  0  0
   27.0403   39.3045   67.4502 H   0  0  0  0  0  0  0  0  0  0  0  0
   30.6044   35.8121   63.1247 H   0  0  0  0  0  0  0  0  0  0  0  0
   32.1120   36.0221   64.0472 H   0  0  0  0  0  0  0  0  0  0  0  0
   32.5813   35.2426   61.7406 H   0  0  0  0  0  0  0  0  0  0  0  0
   33.2399   36.8743   62.0099 H   0  0  0  0  0  0  0  0  0  0  0  0
  1  2  1  0  0  0  0
  1 23  1  0  0  0  0
  1 24  1  0  0  0  0
  1 25  1  0  0  0  0
  2 22  1  0  0  0  0
  2  3  1  0  0  0  0
  2  4  1  0  0  0  0
  3 26  1  0  0  0  0
  3 27  1  0  0  0  0
  3 28  1  0  0  0  0
  4  5  1  0  0  0  0
  4 29  1  0  0  0  0
  4 30  1  0  0  0  0
  5  6  1  0  0  0  0
  5 31  1  0  0  0  0
  5 32  1  0  0  0  0
  6  7  1  0  0  0  0
  6 21  1  0  0  0  0
  6 33  1  0  0  0  0
  7  8  1  0  0  0  0
  7 34  1  0  0  0  0
  8  9  2  0  0  0  0
  8 10  1  0  0  0  0
 10 11  1  1  0  0  0
 10 12  1  0  0  0  0
 10 16  1  0  0  0  0
 12 13  1  0  0  0  0
 12 14  1  0  0  0  0
 12 15  1  0  0  0  0
 16 17  1  0  0  0  0
 16 35  1  0  0  0  0
 16 36  1  0  0  0  0
 17 18  1  0  0  0  0
 17 37  1  0  0  0  0
 17 38  1  0  0  0  0
 18 19  2  0  0  0  0
 18 20  1  0  0  0  0
 21 22  1  0  0  0  0
 21 39  1  0  0  0  0
 21 40  1  0  0  0  0
 22 41  1  0  0  0  0
 22 42  1  0  0  0  0
M  CHG  1  12   1
M  END
$$$$
