ZINC000000035214      none
 OpenBabel11202420153D

 30 32  0  0  0  0  0  0  0  0999 V2000
   34.5289   39.0063   54.1274 C   0  0  0  0  0  0  0  0  0  0  0  0
   33.9850   38.5762   55.4655 C   0  0  0  0  0  0  0  0  0  0  0  0
   33.8432   39.3475   56.5138 N   0  0  0  0  0  0  0  0  0  0  0  0
   33.3085   38.5985   57.5678 N   0  0  0  0  0  0  0  0  0  0  0  0
   32.9769   38.9285   58.8537 C   0  0  0  0  0  0  0  0  0  0  0  0
   33.1562   40.2055   59.3159 N   0  0  0  0  0  0  0  0  0  0  0  0
   32.4504   37.9364   59.6856 C   0  0  0  0  0  0  0  0  0  0  0  0
   32.0877   38.2360   61.0382 C   0  0  0  0  0  0  0  0  0  0  0  0
   31.8000   38.4735   62.1111 N   0  0  0  0  0  0  0  0  0  0  0  0
   32.2837   36.6344   59.1688 C   0  0  0  0  0  0  0  0  0  0  0  0
   32.6185   36.3709   57.9283 N   0  0  0  0  0  0  0  0  0  0  0  0
   33.1226   37.3157   57.1239 C   0  0  0  0  0  0  0  0  0  0  0  0
   33.5424   37.2866   55.7897 C   0  0  0  0  0  0  0  0  0  0  0  0
   33.5254   36.1109   54.8887 C   0  0  0  0  0  0  0  0  0  0  0  0
   34.2550   34.9678   55.2153 C   0  0  0  0  0  0  0  0  0  0  0  0
   34.2317   33.8743   54.3742 C   0  0  0  0  0  0  0  0  0  0  0  0
   33.4943   33.9136   53.2041 C   0  0  0  0  0  0  0  0  0  0  0  0
   32.7728   35.0465   52.8722 C   0  0  0  0  0  0  0  0  0  0  0  0
   32.7843   36.1446   53.7075 C   0  0  0  0  0  0  0  0  0  0  0  0
   35.6098   38.8659   54.1124 H   0  0  0  0  0  0  0  0  0  0  0  0
   34.0737   38.4056   53.3400 H   0  0  0  0  0  0  0  0  0  0  0  0
   34.2969   40.0584   53.9620 H   0  0  0  0  0  0  0  0  0  0  0  0
   33.5217   40.8865   58.7298 H   0  0  0  0  0  0  0  0  0  0  0  0
   32.9177   40.4286   60.2292 H   0  0  0  0  0  0  0  0  0  0  0  0
   31.8794   35.8533   59.7956 H   0  0  0  0  0  0  0  0  0  0  0  0
   34.8340   34.9375   56.1264 H   0  0  0  0  0  0  0  0  0  0  0  0
   34.7929   32.9872   54.6279 H   0  0  0  0  0  0  0  0  0  0  0  0
   33.4823   33.0565   52.5471 H   0  0  0  0  0  0  0  0  0  0  0  0
   32.1998   35.0714   51.9571 H   0  0  0  0  0  0  0  0  0  0  0  0
   32.2204   37.0282   53.4475 H   0  0  0  0  0  0  0  0  0  0  0  0
  1  2  1  0  0  0  0
  1 20  1  0  0  0  0
  1 21  1  0  0  0  0
  1 22  1  0  0  0  0
  2 13  1  0  0  0  0
  2  3  2  0  0  0  0
  3  4  1  0  0  0  0
  4 12  1  0  0  0  0
  4  5  1  0  0  0  0
  5  6  1  0  0  0  0
  5  7  2  0  0  0  0
  6 23  1  0  0  0  0
  6 24  1  0  0  0  0
  7  8  1  0  0  0  0
  7 10  1  0  0  0  0
  8  9  3  0  0  0  0
 10 11  2  0  0  0  0
 10 25  1  0  0  0  0
 11 12  1  0  0  0  0
 12 13  2  0  0  0  0
 13 14  1  0  0  0  0
 14 19  2  0  0  0  0
 14 15  1  0  0  0  0
 15 16  2  0  0  0  0
 15 26  1  0  0  0  0
 16 17  1  0  0  0  0
 16 27  1  0  0  0  0
 17 18  2  0  0  0  0
 17 28  1  0  0  0  0
 18 19  1  0  0  0  0
 18 29  1  0  0  0  0
 19 30  1  0  0  0  0
M  END
$$$$
