ZINC000000036643      none
 OpenBabel11202420153D

 25 27  0  0  0  0  0  0  0  0999 V2000
   32.0870   34.6291   57.6999 O   0  0  0  0  0  0  0  0  0  0  0  0
   32.9754   34.8475   56.8954 C   0  0  0  0  0  0  0  0  0  0  0  0
   33.6986   33.7299   56.2803 C   0  0  0  0  0  0  0  0  0  0  0  0
   33.3543   33.0906   55.1225 C   0  0  0  0  0  0  0  0  0  0  0  0
   34.3216   32.0970   54.9072 C   0  0  0  0  0  0  0  0  0  0  0  0
   35.1997   32.1679   55.9327 C   0  0  0  0  0  0  0  0  0  0  0  0
   34.8187   33.1506   56.7595 O   0  0  0  0  0  0  0  0  0  0  0  0
   33.3226   36.2329   56.5407 C   0  0  0  0  0  0  0  0  0  0  0  0
   33.8120   36.6787   55.3509 C   0  0  0  0  0  0  0  0  0  0  0  0
   34.0047   38.0018   55.4065 O   0  0  0  0  0  0  0  0  0  0  0  0
   33.6604   38.4982   56.6138 C   0  0  0  0  0  0  0  0  0  0  0  0
   33.6765   39.7793   57.1518 C   0  0  0  0  0  0  0  0  0  0  0  0
   33.2414   39.9915   58.4421 C   0  0  0  0  0  0  0  0  0  0  0  0
   32.7948   38.9297   59.2223 C   0  0  0  0  0  0  0  0  0  0  0  0
   32.3757   39.1527   60.4965 O   0  0  0  0  0  0  0  0  0  0  0  0
   32.7761   37.6478   58.7035 C   0  0  0  0  0  0  0  0  0  0  0  0
   33.2066   37.4287   57.3990 C   0  0  0  0  0  0  0  0  0  0  0  0
   32.5050   33.3105   54.4926 H   0  0  0  0  0  0  0  0  0  0  0  0
   34.3578   31.4057   54.0783 H   0  0  0  0  0  0  0  0  0  0  0  0
   36.0660   31.5364   56.0634 H   0  0  0  0  0  0  0  0  0  0  0  0
   34.0144   36.0576   54.4910 H   0  0  0  0  0  0  0  0  0  0  0  0
   34.0197   40.6112   56.5546 H   0  0  0  0  0  0  0  0  0  0  0  0
   33.2530   40.9900   58.8534 H   0  0  0  0  0  0  0  0  0  0  0  0
   32.4248   40.0787   60.7703 H   0  0  0  0  0  0  0  0  0  0  0  0
   32.4290   36.8223   59.3072 H   0  0  0  0  0  0  0  0  0  0  0  0
  1  2  2  0  0  0  0
  2  3  1  0  0  0  0
  2  8  1  0  0  0  0
  3  7  1  0  0  0  0
  3  4  2  0  0  0  0
  4  5  1  0  0  0  0
  4 18  1  0  0  0  0
  5  6  2  0  0  0  0
  5 19  1  0  0  0  0
  6  7  1  0  0  0  0
  6 20  1  0  0  0  0
  8 17  1  0  0  0  0
  8  9  2  0  0  0  0
  9 10  1  0  0  0  0
  9 21  1  0  0  0  0
 10 11  1  0  0  0  0
 11 17  2  0  0  0  0
 11 12  1  0  0  0  0
 12 13  2  0  0  0  0
 12 22  1  0  0  0  0
 13 14  1  0  0  0  0
 13 23  1  0  0  0  0
 14 15  1  0  0  0  0
 14 16  2  0  0  0  0
 15 24  1  0  0  0  0
 16 17  1  0  0  0  0
 16 25  1  0  0  0  0
M  END
$$$$
