ZINC000000033301      none
 OpenBabel11202420153D

 37 39  0  0  1  0  0  0  0  0999 V2000
   31.5340   37.5944   63.6538 C   0  0  0  0  0  0  0  0  0  0  0  0
   32.0956   36.6267   62.6102 C   0  0  0  0  0  0  0  0  0  0  0  0
   30.9517   36.0798   61.7539 C   0  0  1  0  0  0  0  0  0  0  0  0
   30.4481   36.9050   61.2505 H   0  0  0  0  0  0  0  0  0  0  0  0
   31.6160   34.9351   60.5195 S   0  0  0  0  0  0  0  0  0  0  0  0
   32.2061   36.0852   59.3220 C   0  0  0  0  0  0  0  0  0  0  0  0
   32.1218   37.3889   59.4245 N   0  0  0  0  0  0  0  0  0  0  0  0
   32.6735   37.9695   58.3269 C   0  0  0  0  0  0  0  0  0  0  0  0
   32.8464   39.2975   57.9283 C   0  0  0  0  0  0  0  0  0  0  0  0
   33.4585   39.5767   56.7270 C   0  0  0  0  0  0  0  0  0  0  0  0
   33.9049   38.5495   55.9089 C   0  0  0  0  0  0  0  0  0  0  0  0
   33.7420   37.2329   56.2882 C   0  0  0  0  0  0  0  0  0  0  0  0
   33.1275   36.9331   57.4945 C   0  0  0  0  0  0  0  0  0  0  0  0
   32.8194   35.7509   58.1476 N   0  0  0  0  0  0  0  0  0  0  0  0
   33.0049   34.8532   57.8306 H   0  0  0  0  0  0  0  0  0  0  0  0
   29.9679   35.3533   62.6346 C   0  0  0  0  0  0  0  0  0  0  0  0
   28.8150   35.7254   62.6915 O   0  0  0  0  0  0  0  0  0  0  0  0
   30.3694   34.2901   63.3592 N   0  0  0  0  0  0  0  0  0  0  0  0
   29.4616   33.6197   64.1721 C   0  0  0  0  0  0  0  0  0  0  0  0
   29.7283   32.5870   64.9136 N   0  0  0  0  0  0  0  0  0  0  0  0
   28.7868   32.0983   65.5980 N   0  0  0  0  0  0  0  0  0  0  0  0
   27.6309   32.6718   65.4866 C   0  0  0  0  0  0  0  0  0  0  0  0
   26.3649   32.2655   66.1960 C   0  0  0  0  0  0  0  0  0  0  0  0
   27.8047   34.0143   64.3556 S   0  0  0  0  0  0  0  0  0  0  0  0
   32.3343   37.9129   64.3217 H   0  0  0  0  0  0  0  0  0  0  0  0
   31.1114   38.4648   63.1520 H   0  0  0  0  0  0  0  0  0  0  0  0
   30.7563   37.0946   64.2313 H   0  0  0  0  0  0  0  0  0  0  0  0
   32.5992   35.8014   63.1137 H   0  0  0  0  0  0  0  0  0  0  0  0
   32.8071   37.1522   61.9732 H   0  0  0  0  0  0  0  0  0  0  0  0
   32.5009   40.1022   58.5603 H   0  0  0  0  0  0  0  0  0  0  0  0
   33.5879   40.6032   56.4172 H   0  0  0  0  0  0  0  0  0  0  0  0
   34.3831   38.7816   54.9688 H   0  0  0  0  0  0  0  0  0  0  0  0
   34.0921   36.4376   55.6468 H   0  0  0  0  0  0  0  0  0  0  0  0
   31.2915   33.9926   63.3138 H   0  0  0  0  0  0  0  0  0  0  0  0
   25.8237   31.5412   65.5872 H   0  0  0  0  0  0  0  0  0  0  0  0
   26.6151   31.8172   67.1576 H   0  0  0  0  0  0  0  0  0  0  0  0
   25.7402   33.1442   66.3563 H   0  0  0  0  0  0  0  0  0  0  0  0
  1  2  1  0  0  0  0
  1 25  1  0  0  0  0
  1 26  1  0  0  0  0
  1 27  1  0  0  0  0
  2  3  1  0  0  0  0
  2 28  1  0  0  0  0
  2 29  1  0  0  0  0
  3  4  1  6  0  0  0
  3  5  1  0  0  0  0
  3 16  1  0  0  0  0
  5  6  1  0  0  0  0
  6 14  1  0  0  0  0
  6  7  2  0  0  0  0
  7  8  1  0  0  0  0
  8 13  2  0  0  0  0
  8  9  1  0  0  0  0
  9 10  2  0  0  0  0
  9 30  1  0  0  0  0
 10 11  1  0  0  0  0
 10 31  1  0  0  0  0
 11 12  2  0  0  0  0
 11 32  1  0  0  0  0
 12 13  1  0  0  0  0
 12 33  1  0  0  0  0
 13 14  1  0  0  0  0
 14 15  1  0  0  0  0
 16 17  2  0  0  0  0
 16 18  1  0  0  0  0
 18 19  1  0  0  0  0
 18 34  1  0  0  0  0
 19 24  1  0  0  0  0
 19 20  2  0  0  0  0
 20 21  1  0  0  0  0
 21 22  2  0  0  0  0
 22 23  1  0  0  0  0
 22 24  1  0  0  0  0
 23 35  1  0  0  0  0
 23 36  1  0  0  0  0
 23 37  1  0  0  0  0
M  END
$$$$
