ZINC000000036323      none
 OpenBabel11202420153D

 49 50  0  0  0  0  0  0  0  0999 V2000
   30.1601   36.2178   68.9251 C   0  0  0  0  0  0  0  0  0  0  0  0
   28.8560   36.0558   68.1416 C   0  0  0  0  0  0  0  0  0  0  0  0
   27.7719   36.9349   68.7685 C   0  0  0  0  0  0  0  0  0  0  0  0
   29.0782   36.4786   66.6881 C   0  0  0  0  0  0  0  0  0  0  0  0
   30.1163   35.6367   66.0880 N   0  0  0  0  0  0  0  0  0  0  0  0
   29.9283   34.1860   66.0098 C   0  0  0  0  0  0  0  0  0  0  0  0
   28.4756   33.8791   65.6409 C   0  0  0  0  0  0  0  0  0  0  0  0
   28.1495   34.5094   64.2855 C   0  0  0  0  0  0  0  0  0  0  0  0
   28.2794   32.3640   65.5592 C   0  0  0  0  0  0  0  0  0  0  0  0
   31.2593   36.2045   65.6014 C   0  0  0  0  0  0  0  0  0  0  0  0
   32.4077   36.4302   66.2782 C   0  0  0  0  0  0  0  0  0  0  0  0
   33.3496   37.0313   65.4236 C   0  0  0  0  0  0  0  0  0  0  0  0
   34.4764   37.3505   65.7548 O   0  0  0  0  0  0  0  0  0  0  0  0
   32.8382   37.2060   64.1895 O   0  0  0  0  0  0  0  0  0  0  0  0
   31.4999   36.7020   64.1959 C   0  0  0  0  0  0  0  0  0  0  0  0
   30.5147   37.8188   63.8588 C   0  0  0  0  0  0  0  0  0  0  0  0
   30.7816   38.3258   62.4397 C   0  0  0  0  0  0  0  0  0  0  0  0
   30.6203   37.1719   61.4480 C   0  0  0  0  0  0  0  0  0  0  0  0
   31.6231   36.0662   61.7839 C   0  0  0  0  0  0  0  0  0  0  0  0
   31.3589   35.5523   63.2011 C   0  0  0  0  0  0  0  0  0  0  0  0
   30.4753   37.2608   68.8941 H   0  0  0  0  0  0  0  0  0  0  0  0
   30.0018   35.9166   69.9605 H   0  0  0  0  0  0  0  0  0  0  0  0
   30.9324   35.5915   68.4785 H   0  0  0  0  0  0  0  0  0  0  0  0
   28.5408   35.0128   68.1725 H   0  0  0  0  0  0  0  0  0  0  0  0
   26.8427   36.8194   68.2102 H   0  0  0  0  0  0  0  0  0  0  0  0
   27.6135   36.6336   69.8039 H   0  0  0  0  0  0  0  0  0  0  0  0
   28.0871   37.9779   68.7375 H   0  0  0  0  0  0  0  0  0  0  0  0
   29.3935   37.5215   66.6572 H   0  0  0  0  0  0  0  0  0  0  0  0
   28.1492   36.3630   66.1300 H   0  0  0  0  0  0  0  0  0  0  0  0
   30.5913   33.7743   65.2487 H   0  0  0  0  0  0  0  0  0  0  0  0
   30.1607   33.7370   66.9754 H   0  0  0  0  0  0  0  0  0  0  0  0
   27.8128   34.2908   66.4019 H   0  0  0  0  0  0  0  0  0  0  0  0
   28.8124   34.0978   63.5244 H   0  0  0  0  0  0  0  0  0  0  0  0
   27.1144   34.2908   64.0227 H   0  0  0  0  0  0  0  0  0  0  0  0
   28.2893   35.5890   64.3437 H   0  0  0  0  0  0  0  0  0  0  0  0
   28.5117   31.9149   66.5248 H   0  0  0  0  0  0  0  0  0  0  0  0
   27.2444   32.1453   65.2964 H   0  0  0  0  0  0  0  0  0  0  0  0
   28.9422   31.9522   64.7981 H   0  0  0  0  0  0  0  0  0  0  0  0
   32.5763   36.1862   67.3167 H   0  0  0  0  0  0  0  0  0  0  0  0
   29.4962   37.4358   63.9221 H   0  0  0  0  0  0  0  0  0  0  0  0
   30.6388   38.6384   64.5667 H   0  0  0  0  0  0  0  0  0  0  0  0
   31.7967   38.7182   62.3789 H   0  0  0  0  0  0  0  0  0  0  0  0
   30.0712   39.1160   62.1965 H   0  0  0  0  0  0  0  0  0  0  0  0
   30.8042   37.5339   60.4364 H   0  0  0  0  0  0  0  0  0  0  0  0
   29.6071   36.7755   61.5134 H   0  0  0  0  0  0  0  0  0  0  0  0
   32.6361   36.4640   61.7245 H   0  0  0  0  0  0  0  0  0  0  0  0
   31.5121   35.2469   61.0736 H   0  0  0  0  0  0  0  0  0  0  0  0
   32.0793   34.7713   63.4443 H   0  0  0  0  0  0  0  0  0  0  0  0
   30.3494   35.1451   63.2575 H   0  0  0  0  0  0  0  0  0  0  0  0
  1  2  1  0  0  0  0
  1 21  1  0  0  0  0
  1 22  1  0  0  0  0
  1 23  1  0  0  0  0
  2  3  1  0  0  0  0
  2  4  1  0  0  0  0
  2 24  1  0  0  0  0
  3 25  1  0  0  0  0
  3 26  1  0  0  0  0
  3 27  1  0  0  0  0
  4  5  1  0  0  0  0
  4 28  1  0  0  0  0
  4 29  1  0  0  0  0
  5  6  1  0  0  0  0
  5 10  1  0  0  0  0
  6  7  1  0  0  0  0
  6 30  1  0  0  0  0
  6 31  1  0  0  0  0
  7  8  1  0  0  0  0
  7  9  1  0  0  0  0
  7 32  1  0  0  0  0
  8 33  1  0  0  0  0
  8 34  1  0  0  0  0
  8 35  1  0  0  0  0
  9 36  1  0  0  0  0
  9 37  1  0  0  0  0
  9 38  1  0  0  0  0
 10 15  1  0  0  0  0
 10 11  2  0  0  0  0
 11 12  1  0  0  0  0
 11 39  1  0  0  0  0
 12 13  2  0  0  0  0
 12 14  1  0  0  0  0
 14 15  1  0  0  0  0
 15 20  1  0  0  0  0
 15 16  1  0  0  0  0
 16 17  1  0  0  0  0
 16 40  1  0  0  0  0
 16 41  1  0  0  0  0
 17 18  1  0  0  0  0
 17 42  1  0  0  0  0
 17 43  1  0  0  0  0
 18 19  1  0  0  0  0
 18 44  1  0  0  0  0
 18 45  1  0  0  0  0
 19 20  1  0  0  0  0
 19 46  1  0  0  0  0
 19 47  1  0  0  0  0
 20 48  1  0  0  0  0
 20 49  1  0  0  0  0
M  END
$$$$
