ZINC000000029918      none
 OpenBabel11202420163D

 43 44  0  0  0  0  0  0  0  0999 V2000
   31.1154   39.2516   65.7521 C   0  0  0  0  0  0  0  0  0  0  0  0
   29.9063   38.6396   65.0421 C   0  0  0  0  0  0  0  0  0  0  0  0
   30.2843   37.3508   64.4568 N   0  0  0  0  0  0  0  0  0  0  0  0
   30.1506   36.2189   65.1762 C   0  0  0  0  0  0  0  0  0  0  0  0
   30.4643   35.1493   64.6904 O   0  0  0  0  0  0  0  0  0  0  0  0
   29.6234   36.2777   66.5533 C   0  0  0  0  0  0  0  0  0  0  0  0
   30.4970   36.4432   67.6310 C   0  0  0  0  0  0  0  0  0  0  0  0
   30.0036   36.4926   68.9165 C   0  0  0  0  0  0  0  0  0  0  0  0
   28.6377   36.3900   69.1438 C   0  0  0  0  0  0  0  0  0  0  0  0
   28.1560   36.4444   70.4123 O   0  0  0  0  0  0  0  0  0  0  0  0
   28.0432   35.2066   71.1172 C   0  0  0  0  0  0  0  0  0  0  0  0
   27.7605   36.2247   68.0731 C   0  0  0  0  0  0  0  0  0  0  0  0
   26.4236   36.1193   68.2993 O   0  0  0  0  0  0  0  0  0  0  0  0
   25.6693   37.3330   68.3077 C   0  0  0  0  0  0  0  0  0  0  0  0
   28.2491   36.1686   66.7822 C   0  0  0  0  0  0  0  0  0  0  0  0
   30.7839   37.2951   63.1518 C   0  0  0  0  0  0  0  0  0  0  0  0
   32.1494   37.4094   62.9239 C   0  0  0  0  0  0  0  0  0  0  0  0
   32.6399   37.3497   61.6345 C   0  0  0  0  0  0  0  0  0  0  0  0
   31.7724   37.1864   60.5698 C   0  0  0  0  0  0  0  0  0  0  0  0
   30.4122   37.0773   60.7929 C   0  0  0  0  0  0  0  0  0  0  0  0
   29.9155   37.1314   62.0807 C   0  0  0  0  0  0  0  0  0  0  0  0
   28.4328   37.0133   62.3229 C   0  0  0  0  0  0  0  0  0  0  0  0
   31.9529   39.3117   65.0571 H   0  0  0  0  0  0  0  0  0  0  0  0
   30.8626   40.2519   66.1037 H   0  0  0  0  0  0  0  0  0  0  0  0
   31.3924   38.6273   66.6016 H   0  0  0  0  0  0  0  0  0  0  0  0
   29.5693   39.3121   64.2533 H   0  0  0  0  0  0  0  0  0  0  0  0
   29.1003   38.4898   65.7607 H   0  0  0  0  0  0  0  0  0  0  0  0
   31.5595   36.5277   67.4568 H   0  0  0  0  0  0  0  0  0  0  0  0
   30.6804   36.6161   69.7491 H   0  0  0  0  0  0  0  0  0  0  0  0
   27.3704   34.5407   70.5767 H   0  0  0  0  0  0  0  0  0  0  0  0
   29.0265   34.7430   71.1970 H   0  0  0  0  0  0  0  0  0  0  0  0
   27.6467   35.3917   72.1155 H   0  0  0  0  0  0  0  0  0  0  0  0
   24.6202   37.1075   68.4987 H   0  0  0  0  0  0  0  0  0  0  0  0
   26.0479   37.9907   69.0902 H   0  0  0  0  0  0  0  0  0  0  0  0
   25.7647   37.8266   67.3406 H   0  0  0  0  0  0  0  0  0  0  0  0
   27.5705   36.0411   65.9518 H   0  0  0  0  0  0  0  0  0  0  0  0
   32.8270   37.5412   63.7545 H   0  0  0  0  0  0  0  0  0  0  0  0
   33.7018   37.4346   61.4568 H   0  0  0  0  0  0  0  0  0  0  0  0
   32.1582   37.1438   59.5620 H   0  0  0  0  0  0  0  0  0  0  0  0
   29.7374   36.9499   59.9594 H   0  0  0  0  0  0  0  0  0  0  0  0
   27.9847   38.0069   62.3252 H   0  0  0  0  0  0  0  0  0  0  0  0
   27.9821   36.4133   61.5321 H   0  0  0  0  0  0  0  0  0  0  0  0
   28.2591   36.5341   63.2863 H   0  0  0  0  0  0  0  0  0  0  0  0
  1  2  1  0  0  0  0
  1 23  1  0  0  0  0
  1 24  1  0  0  0  0
  1 25  1  0  0  0  0
  2  3  1  0  0  0  0
  2 26  1  0  0  0  0
  2 27  1  0  0  0  0
  3  4  1  0  0  0  0
  3 16  1  0  0  0  0
  4  5  2  0  0  0  0
  4  6  1  0  0  0  0
  6 15  2  0  0  0  0
  6  7  1  0  0  0  0
  7  8  2  0  0  0  0
  7 28  1  0  0  0  0
  8  9  1  0  0  0  0
  8 29  1  0  0  0  0
  9 10  1  0  0  0  0
  9 12  2  0  0  0  0
 10 11  1  0  0  0  0
 11 30  1  0  0  0  0
 11 31  1  0  0  0  0
 11 32  1  0  0  0  0
 12 13  1  0  0  0  0
 12 15  1  0  0  0  0
 13 14  1  0  0  0  0
 14 33  1  0  0  0  0
 14 34  1  0  0  0  0
 14 35  1  0  0  0  0
 15 36  1  0  0  0  0
 16 21  2  0  0  0  0
 16 17  1  0  0  0  0
 17 18  2  0  0  0  0
 17 37  1  0  0  0  0
 18 19  1  0  0  0  0
 18 38  1  0  0  0  0
 19 20  2  0  0  0  0
 19 39  1  0  0  0  0
 20 21  1  0  0  0  0
 20 40  1  0  0  0  0
 21 22  1  0  0  0  0
 22 41  1  0  0  0  0
 22 42  1  0  0  0  0
 22 43  1  0  0  0  0
M  END
$$$$
