ZINC000000056339      none
 OpenBabel11202420153D

 38 40  0  0  0  0  0  0  0  0999 V2000
   31.4874   33.6235   55.9704 O   0  0  0  0  0  0  0  0  0  0  0  0
   32.3361   33.6566   56.8363 C   0  0  0  0  0  0  0  0  0  0  0  0
   32.0018   34.2080   58.1983 C   0  0  0  0  0  0  0  0  0  0  0  0
   32.2707   35.6478   58.2218 N   0  0  0  0  0  0  0  0  0  0  0  0
   32.7388   36.3937   57.1974 C   0  0  0  0  0  0  0  0  0  0  0  0
   32.8518   37.6335   57.5915 N   0  0  0  0  0  0  0  0  0  0  0  0
   32.4661   37.7341   58.8687 C   0  0  0  0  0  0  0  0  0  0  0  0
   32.0885   36.4967   59.2900 C   0  0  0  0  0  0  0  0  0  0  0  0
   31.5849   36.1341   60.6327 C   0  0  0  0  0  0  0  0  0  0  0  0
   30.4253   36.7294   61.1302 C   0  0  0  0  0  0  0  0  0  0  0  0
   29.9578   36.3830   62.3813 C   0  0  0  0  0  0  0  0  0  0  0  0
   30.6424   35.4564   63.1466 C   0  0  0  0  0  0  0  0  0  0  0  0
   30.1386   35.0941   64.4905 N   0  0  0  0  0  0  0  0  0  0  0  0
   29.1239   35.6112   64.9206 O   0  0  0  0  0  0  0  0  0  0  0  0
   30.7403   34.2781   65.1667 O   0  0  0  0  0  0  0  0  0  0  0  0
   31.7964   34.8664   62.6613 C   0  0  0  0  0  0  0  0  0  0  0  0
   32.2710   35.1997   61.4095 C   0  0  0  0  0  0  0  0  0  0  0  0
   33.5781   33.2001   56.5802 N   0  0  0  0  0  0  0  0  0  0  0  0
   33.8886   32.6876   55.3145 C   0  0  0  0  0  0  0  0  0  0  0  0
   33.2329   33.1682   54.1894 C   0  0  0  0  0  0  0  0  0  0  0  0
   33.5410   32.6606   52.9421 C   0  0  0  0  0  0  0  0  0  0  0  0
   34.5016   31.6744   52.8123 C   0  0  0  0  0  0  0  0  0  0  0  0
   35.1576   31.1923   53.9300 C   0  0  0  0  0  0  0  0  0  0  0  0
   34.8542   31.6959   55.1819 C   0  0  0  0  0  0  0  0  0  0  0  0
   35.4953   31.2254   56.2740 F   0  0  0  0  0  0  0  0  0  0  0  0
   30.9478   34.0317   58.4130 H   0  0  0  0  0  0  0  0  0  0  0  0
   32.6139   33.7117   58.9515 H   0  0  0  0  0  0  0  0  0  0  0  0
   32.9804   36.0242   56.2118 H   0  0  0  0  0  0  0  0  0  0  0  0
   32.4528   38.6382   59.4594 H   0  0  0  0  0  0  0  0  0  0  0  0
   29.8920   37.4563   60.5356 H   0  0  0  0  0  0  0  0  0  0  0  0
   29.0578   36.8397   62.7658 H   0  0  0  0  0  0  0  0  0  0  0  0
   32.3265   34.1435   63.2636 H   0  0  0  0  0  0  0  0  0  0  0  0
   33.1713   34.7383   61.0316 H   0  0  0  0  0  0  0  0  0  0  0  0
   34.2568   33.2265   57.2727 H   0  0  0  0  0  0  0  0  0  0  0  0
   32.4828   33.9387   54.2890 H   0  0  0  0  0  0  0  0  0  0  0  0
   33.0340   33.0378   52.0662 H   0  0  0  0  0  0  0  0  0  0  0  0
   34.7397   31.2794   51.8357 H   0  0  0  0  0  0  0  0  0  0  0  0
   35.9075   30.4222   53.8253 H   0  0  0  0  0  0  0  0  0  0  0  0
  1  2  2  0  0  0  0
  2  3  1  0  0  0  0
  2 18  1  0  0  0  0
  3  4  1  0  0  0  0
  3 26  1  0  0  0  0
  3 27  1  0  0  0  0
  4  8  1  0  0  0  0
  4  5  1  0  0  0  0
  5  6  2  0  0  0  0
  5 28  1  0  0  0  0
  6  7  1  0  0  0  0
  7  8  2  0  0  0  0
  7 29  1  0  0  0  0
  8  9  1  0  0  0  0
  9 17  2  0  0  0  0
  9 10  1  0  0  0  0
 10 11  2  0  0  0  0
 10 30  1  0  0  0  0
 11 12  1  0  0  0  0
 11 31  1  0  0  0  0
 12 13  1  0  0  0  0
 12 16  2  0  0  0  0
 13 14  2  0  0  0  0
 13 15  2  0  0  0  0
 16 17  1  0  0  0  0
 16 32  1  0  0  0  0
 17 33  1  0  0  0  0
 18 19  1  0  0  0  0
 18 34  1  0  0  0  0
 19 24  2  0  0  0  0
 19 20  1  0  0  0  0
 20 21  2  0  0  0  0
 20 35  1  0  0  0  0
 21 22  1  0  0  0  0
 21 36  1  0  0  0  0
 22 23  2  0  0  0  0
 22 37  1  0  0  0  0
 23 24  1  0  0  0  0
 23 38  1  0  0  0  0
 24 25  1  0  0  0  0
M  END
$$$$
