ZINC000000034864      none
 OpenBabel11202420153D

 40 42  0  0  1  0  0  0  0  0999 V2000
   32.8587   39.3638   66.7418 C   0  0  0  0  0  0  0  0  0  0  0  0
   31.8113   38.9440   65.7429 C   0  0  0  0  0  0  0  0  0  0  0  0
   31.5632   39.6529   64.7895 O   0  0  0  0  0  0  0  0  0  0  0  0
   31.1171   37.7231   65.9166 C   0  0  0  0  0  0  0  0  0  0  0  0
   31.2895   36.8306   66.9226 C   0  0  0  0  0  0  0  0  0  0  0  0
   32.1663   36.9593   67.9431 O   0  0  0  0  0  0  0  0  0  0  0  0
   30.3623   35.6943   66.7261 C   0  0  0  0  0  0  0  0  0  0  0  0
   30.2731   34.7318   67.4619 O   0  0  0  0  0  0  0  0  0  0  0  0
   29.6362   35.8823   65.6092 N   0  0  0  0  0  0  0  0  0  0  0  0
   28.6172   34.9721   65.0808 C   0  0  0  0  0  0  0  0  0  0  0  0
   29.2438   33.6340   64.7845 C   0  0  0  0  0  0  0  0  0  0  0  0
   29.3364   32.6017   65.6417 C   0  0  0  0  0  0  0  0  0  0  0  0
   29.9911   31.5548   64.9530 C   0  0  0  0  0  0  0  0  0  0  0  0
   30.2594   32.0100   63.7161 C   0  0  0  0  0  0  0  0  0  0  0  0
   29.7993   33.2680   63.6178 O   0  0  0  0  0  0  0  0  0  0  0  0
   30.0453   37.1594   65.0132 C   0  0  2  0  0  0  0  0  0  0  0  0
   29.1960   37.8411   64.9688 H   0  0  0  0  0  0  0  0  0  0  0  0
   30.5999   36.9329   63.6303 C   0  0  0  0  0  0  0  0  0  0  0  0
   31.6658   36.0724   63.4454 C   0  0  0  0  0  0  0  0  0  0  0  0
   32.1714   35.8610   62.1763 C   0  0  0  0  0  0  0  0  0  0  0  0
   31.6178   36.5182   61.0935 C   0  0  0  0  0  0  0  0  0  0  0  0
   32.1728   36.2925   59.7108 C   0  0  0  0  0  0  0  0  0  0  0  0
   30.5551   37.3827   61.2790 C   0  0  0  0  0  0  0  0  0  0  0  0
   30.0462   37.5901   62.5475 C   0  0  0  0  0  0  0  0  0  0  0  0
   33.2811   40.3235   66.4438 H   0  0  0  0  0  0  0  0  0  0  0  0
   33.6491   38.6140   66.7764 H   0  0  0  0  0  0  0  0  0  0  0  0
   32.4036   39.4577   67.7278 H   0  0  0  0  0  0  0  0  0  0  0  0
   33.0897   37.0216   67.6629 H   0  0  0  0  0  0  0  0  0  0  0  0
   27.8244   34.8468   65.8182 H   0  0  0  0  0  0  0  0  0  0  0  0
   28.1984   35.3883   64.1644 H   0  0  0  0  0  0  0  0  0  0  0  0
   28.9796   32.5774   66.6608 H   0  0  0  0  0  0  0  0  0  0  0  0
   30.2302   30.5772   65.3450 H   0  0  0  0  0  0  0  0  0  0  0  0
   30.7559   31.4561   62.9330 H   0  0  0  0  0  0  0  0  0  0  0  0
   32.1012   35.5625   64.2920 H   0  0  0  0  0  0  0  0  0  0  0  0
   33.0018   35.1859   62.0314 H   0  0  0  0  0  0  0  0  0  0  0  0
   32.9638   37.0164   59.5141 H   0  0  0  0  0  0  0  0  0  0  0  0
   32.5788   35.2832   59.6425 H   0  0  0  0  0  0  0  0  0  0  0  0
   31.3775   36.4148   58.9755 H   0  0  0  0  0  0  0  0  0  0  0  0
   30.1229   37.8964   60.4331 H   0  0  0  0  0  0  0  0  0  0  0  0
   29.2163   38.2658   62.6925 H   0  0  0  0  0  0  0  0  0  0  0  0
  1  2  1  0  0  0  0
  1 25  1  0  0  0  0
  1 26  1  0  0  0  0
  1 27  1  0  0  0  0
  2  3  2  0  0  0  0
  2  4  1  0  0  0  0
  4 16  1  0  0  0  0
  4  5  2  0  0  0  0
  5  6  1  0  0  0  0
  5  7  1  0  0  0  0
  6 28  1  0  0  0  0
  7  8  2  0  0  0  0
  7  9  1  0  0  0  0
  9 10  1  0  0  0  0
  9 16  1  0  0  0  0
 10 11  1  0  0  0  0
 10 29  1  0  0  0  0
 10 30  1  0  0  0  0
 11 15  1  0  0  0  0
 11 12  2  0  0  0  0
 12 13  1  0  0  0  0
 12 31  1  0  0  0  0
 13 14  2  0  0  0  0
 13 32  1  0  0  0  0
 14 15  1  0  0  0  0
 14 33  1  0  0  0  0
 16 17  1  6  0  0  0
 16 18  1  0  0  0  0
 18 24  2  0  0  0  0
 18 19  1  0  0  0  0
 19 20  2  0  0  0  0
 19 34  1  0  0  0  0
 20 21  1  0  0  0  0
 20 35  1  0  0  0  0
 21 22  1  0  0  0  0
 21 23  2  0  0  0  0
 22 36  1  0  0  0  0
 22 37  1  0  0  0  0
 22 38  1  0  0  0  0
 23 24  1  0  0  0  0
 23 39  1  0  0  0  0
 24 40  1  0  0  0  0
M  END
$$$$
