ZINC000000053743      none
 OpenBabel11202420153D

 27 29  0  0  0  0  0  0  0  0999 V2000
   30.7305   38.8417   58.0727 O   0  0  0  0  0  0  0  0  0  0  0  0
   31.9690   38.4330   58.6367 S   0  0  0  0  0  0  0  0  0  0  0  0
   32.9461   39.3273   59.1513 O   0  0  0  0  0  0  0  0  0  0  0  0
   31.6351   37.3088   59.8288 N   0  0  0  0  0  0  0  0  0  0  0  0
   32.0921   36.1797   59.3984 C   0  0  0  0  0  0  0  0  0  0  0  0
   31.9719   35.0610   60.1488 O   0  0  0  0  0  0  0  0  0  0  0  0
   31.9638   35.1976   61.5010 C   0  0  0  0  0  0  0  0  0  0  0  0
   32.6586   36.2394   62.0983 C   0  0  0  0  0  0  0  0  0  0  0  0
   32.6490   36.3758   63.4729 C   0  0  0  0  0  0  0  0  0  0  0  0
   31.9480   35.4752   64.2534 C   0  0  0  0  0  0  0  0  0  0  0  0
   31.2591   34.4330   63.6609 C   0  0  0  0  0  0  0  0  0  0  0  0
   31.2610   34.2951   62.2864 C   0  0  0  0  0  0  0  0  0  0  0  0
   32.7499   36.1281   58.0848 C   0  0  0  0  0  0  0  0  0  0  0  0
   33.3185   35.0482   57.3915 C   0  0  0  0  0  0  0  0  0  0  0  0
   33.8814   35.2391   56.1498 C   0  0  0  0  0  0  0  0  0  0  0  0
   33.8946   36.4903   55.5592 C   0  0  0  0  0  0  0  0  0  0  0  0
   33.3321   37.5682   56.2278 C   0  0  0  0  0  0  0  0  0  0  0  0
   32.7728   37.3820   57.4590 C   0  0  0  0  0  0  0  0  0  0  0  0
   33.2061   36.9434   61.4891 H   0  0  0  0  0  0  0  0  0  0  0  0
   33.1901   37.1864   63.9384 H   0  0  0  0  0  0  0  0  0  0  0  0
   31.9421   35.5833   65.3280 H   0  0  0  0  0  0  0  0  0  0  0  0
   30.7156   33.7284   64.2730 H   0  0  0  0  0  0  0  0  0  0  0  0
   30.7194   33.4834   61.8238 H   0  0  0  0  0  0  0  0  0  0  0  0
   33.3185   34.0640   57.8362 H   0  0  0  0  0  0  0  0  0  0  0  0
   34.3192   34.4002   55.6293 H   0  0  0  0  0  0  0  0  0  0  0  0
   34.3394   36.6270   54.5845 H   0  0  0  0  0  0  0  0  0  0  0  0
   33.3364   38.5493   55.7763 H   0  0  0  0  0  0  0  0  0  0  0  0
  1  2  2  0  0  0  0
  2 18  1  0  0  0  0
  2  3  2  0  0  0  0
  2  4  1  0  0  0  0
  4  5  2  0  0  0  0
  5  6  1  0  0  0  0
  5 13  1  0  0  0  0
  6  7  1  0  0  0  0
  7 12  2  0  0  0  0
  7  8  1  0  0  0  0
  8  9  2  0  0  0  0
  8 19  1  0  0  0  0
  9 10  1  0  0  0  0
  9 20  1  0  0  0  0
 10 11  2  0  0  0  0
 10 21  1  0  0  0  0
 11 12  1  0  0  0  0
 11 22  1  0  0  0  0
 12 23  1  0  0  0  0
 13 18  2  0  0  0  0
 13 14  1  0  0  0  0
 14 15  2  0  0  0  0
 14 24  1  0  0  0  0
 15 16  1  0  0  0  0
 15 25  1  0  0  0  0
 16 17  2  0  0  0  0
 16 26  1  0  0  0  0
 17 18  1  0  0  0  0
 17 27  1  0  0  0  0
M  END
$$$$
