ZINC000000047458      none
 OpenBabel11202420153D

 45 49  0  0  1  0  0  0  0  0999 V2000
   28.6445   37.1726   68.4475 C   0  0  0  0  0  0  0  0  0  0  0  0
   30.1086   37.0738   68.3795 N   0  0  0  0  0  0  0  0  0  0  0  0
   30.7097   38.1979   68.9324 C   0  0  0  0  0  0  0  0  0  0  0  0
   30.3560   38.8917   70.0915 C   0  0  0  0  0  0  0  0  0  0  0  0
   31.1326   39.9860   70.4379 C   0  0  0  0  0  0  0  0  0  0  0  0
   32.2128   40.3836   69.6766 C   0  0  0  0  0  0  0  0  0  0  0  0
   32.5710   39.7067   68.5167 C   0  0  0  0  0  0  0  0  0  0  0  0
   31.8050   38.6129   68.1656 C   0  0  0  0  0  0  0  0  0  0  0  0
   31.9266   37.6884   66.9842 C   0  0  0  0  0  0  0  0  0  0  0  0
   32.1189   38.4832   65.6911 C   0  0  0  0  0  0  0  0  0  0  0  0
   33.0727   36.6956   67.1880 C   0  0  0  0  0  0  0  0  0  0  0  0
   30.5665   36.9603   66.9816 C   0  0  1  0  0  0  0  0  0  0  0  0
   30.7486   35.5217   66.5974 C   0  0  0  0  0  0  0  0  0  0  0  0
   30.6150   35.1561   65.3631 N   0  0  0  0  0  0  0  0  0  0  0  0
   30.2999   36.0791   64.4051 C   0  0  0  0  0  0  0  0  0  0  0  0
   29.8091   37.3276   64.7753 C   0  0  0  0  0  0  0  0  0  0  0  0
   29.4753   38.2740   63.8085 C   0  0  0  0  0  0  0  0  0  0  0  0
   29.6237   38.0037   62.4821 C   0  0  0  0  0  0  0  0  0  0  0  0
   30.1229   36.7570   62.0651 C   0  0  0  0  0  0  0  0  0  0  0  0
   30.2854   36.4598   60.7009 C   0  0  0  0  0  0  0  0  0  0  0  0
   30.7741   35.2448   60.3292 C   0  0  0  0  0  0  0  0  0  0  0  0
   31.1178   34.2884   61.2820 C   0  0  0  0  0  0  0  0  0  0  0  0
   30.9716   34.5418   62.6124 C   0  0  0  0  0  0  0  0  0  0  0  0
   30.4681   35.7811   63.0324 C   0  0  0  0  0  0  0  0  0  0  0  0
   29.6589   37.6118   66.0993 O   0  0  0  0  0  0  0  0  0  0  0  0
   28.3139   38.0540   67.8979 H   0  0  0  0  0  0  0  0  0  0  0  0
   28.1993   36.2810   68.0061 H   0  0  0  0  0  0  0  0  0  0  0  0
   28.3339   37.2563   69.4890 H   0  0  0  0  0  0  0  0  0  0  0  0
   29.5122   38.5878   70.6934 H   0  0  0  0  0  0  0  0  0  0  0  0
   30.8852   40.5438   71.3290 H   0  0  0  0  0  0  0  0  0  0  0  0
   32.7898   41.2424   69.9865 H   0  0  0  0  0  0  0  0  0  0  0  0
   33.4137   40.0201   67.9185 H   0  0  0  0  0  0  0  0  0  0  0  0
   33.0405   39.0618   65.7539 H   0  0  0  0  0  0  0  0  0  0  0  0
   32.1785   37.7955   64.8475 H   0  0  0  0  0  0  0  0  0  0  0  0
   31.2747   39.1583   65.5507 H   0  0  0  0  0  0  0  0  0  0  0  0
   32.8967   36.1187   68.0960 H   0  0  0  0  0  0  0  0  0  0  0  0
   33.1254   36.0210   66.3335 H   0  0  0  0  0  0  0  0  0  0  0  0
   34.0128   37.2397   67.2798 H   0  0  0  0  0  0  0  0  0  0  0  0
   30.9923   34.7893   67.3528 H   0  0  0  0  0  0  0  0  0  0  0  0
   29.0935   39.2364   64.1156 H   0  0  0  0  0  0  0  0  0  0  0  0
   29.3574   38.7495   61.7477 H   0  0  0  0  0  0  0  0  0  0  0  0
   30.0229   37.1914   59.9511 H   0  0  0  0  0  0  0  0  0  0  0  0
   30.8981   35.0194   59.2804 H   0  0  0  0  0  0  0  0  0  0  0  0
   31.5060   33.3329   60.9614 H   0  0  0  0  0  0  0  0  0  0  0  0
   31.2425   33.7916   63.3404 H   0  0  0  0  0  0  0  0  0  0  0  0
  1  2  1  0  0  0  0
  1 26  1  0  0  0  0
  1 27  1  0  0  0  0
  1 28  1  0  0  0  0
  2 12  1  0  0  0  0
  2  3  1  0  0  0  0
  3  8  2  0  0  0  0
  3  4  1  0  0  0  0
  4  5  2  0  0  0  0
  4 29  1  0  0  0  0
  5  6  1  0  0  0  0
  5 30  1  0  0  0  0
  6  7  2  0  0  0  0
  6 31  1  0  0  0  0
  7  8  1  0  0  0  0
  7 32  1  0  0  0  0
  8  9  1  0  0  0  0
  9 10  1  0  0  0  0
  9 11  1  0  0  0  0
  9 12  1  0  0  0  0
 10 33  1  0  0  0  0
 10 34  1  0  0  0  0
 10 35  1  0  0  0  0
 11 36  1  0  0  0  0
 11 37  1  0  0  0  0
 11 38  1  0  0  0  0
 12 25  1  6  0  0  0
 12 13  1  0  0  0  0
 13 14  2  0  0  0  0
 13 39  1  0  0  0  0
 14 15  1  0  0  0  0
 15 24  2  0  0  0  0
 15 16  1  0  0  0  0
 16 17  2  0  0  0  0
 16 25  1  0  0  0  0
 17 18  1  0  0  0  0
 17 40  1  0  0  0  0
 18 19  2  0  0  0  0
 18 41  1  0  0  0  0
 19 24  1  0  0  0  0
 19 20  1  0  0  0  0
 20 21  2  0  0  0  0
 20 42  1  0  0  0  0
 21 22  1  0  0  0  0
 21 43  1  0  0  0  0
 22 23  2  0  0  0  0
 22 44  1  0  0  0  0
 23 24  1  0  0  0  0
 23 45  1  0  0  0  0
M  END
$$$$
