ZINC000000024307      none
 OpenBabel11202420153D

 47 50  0  0  0  0  0  0  0  0999 V2000
   30.7071   34.3651   66.8494 O   0  0  0  0  0  0  0  0  0  0  0  0
   29.9893   34.7081   65.9341 C   0  0  0  0  0  0  0  0  0  0  0  0
   30.0859   36.1080   65.3846 C   0  0  0  0  0  0  0  0  0  0  0  0
   30.4466   36.0517   63.9617 N   0  0  0  0  0  0  0  0  0  0  0  0
   31.8702   35.7341   63.7918 C   0  0  0  0  0  0  0  0  0  0  0  0
   32.1772   35.5405   62.3050 C   0  0  0  0  0  0  0  0  0  0  0  0
   31.8271   36.8231   61.5454 C   0  0  0  0  0  0  0  0  0  0  0  0
   32.0712   36.6200   60.0723 C   0  0  0  0  0  0  0  0  0  0  0  0
   31.9740   35.4627   59.3989 C   0  0  0  0  0  0  0  0  0  0  0  0
   32.2684   35.6656   58.0781 N   0  0  0  0  0  0  0  0  0  0  0  0
   32.2647   34.9776   57.3943 H   0  0  0  0  0  0  0  0  0  0  0  0
   32.5698   36.9918   57.8640 C   0  0  0  0  0  0  0  0  0  0  0  0
   32.9300   37.7222   56.7360 C   0  0  0  0  0  0  0  0  0  0  0  0
   33.1736   39.0736   56.8450 C   0  0  0  0  0  0  0  0  0  0  0  0
   33.0634   39.7164   58.0705 C   0  0  0  0  0  0  0  0  0  0  0  0
   32.7110   39.0185   59.1911 C   0  0  0  0  0  0  0  0  0  0  0  0
   32.4531   37.6491   59.1023 C   0  0  0  0  0  0  0  0  0  0  0  0
   30.3512   37.1580   61.7782 C   0  0  0  0  0  0  0  0  0  0  0  0
   30.0972   37.3047   63.2802 C   0  0  0  0  0  0  0  0  0  0  0  0
   29.1050   33.8374   65.4084 N   0  0  0  0  0  0  0  0  0  0  0  0
   29.0156   32.5423   65.9167 C   0  0  0  0  0  0  0  0  0  0  0  0
   28.1010   31.6493   65.3699 C   0  0  0  0  0  0  0  0  0  0  0  0
   28.0262   30.3655   65.8803 C   0  0  0  0  0  0  0  0  0  0  0  0
   28.8646   30.0211   66.9321 C   0  0  0  0  0  0  0  0  0  0  0  0
   29.7491   30.9591   67.4264 C   0  0  0  0  0  0  0  0  0  0  0  0
   29.8019   32.1744   66.9156 N   0  0  0  0  0  0  0  0  0  0  0  0
   29.1245   36.6093   65.4962 H   0  0  0  0  0  0  0  0  0  0  0  0
   30.8497   36.6610   65.9313 H   0  0  0  0  0  0  0  0  0  0  0  0
   32.4742   36.5525   64.1838 H   0  0  0  0  0  0  0  0  0  0  0  0
   32.1051   34.8178   64.3334 H   0  0  0  0  0  0  0  0  0  0  0  0
   31.5838   34.7134   61.9156 H   0  0  0  0  0  0  0  0  0  0  0  0
   33.2371   35.3199   62.1774 H   0  0  0  0  0  0  0  0  0  0  0  0
   32.4481   37.6423   61.9080 H   0  0  0  0  0  0  0  0  0  0  0  0
   31.7036   34.5124   59.8350 H   0  0  0  0  0  0  0  0  0  0  0  0
   33.0187   37.2312   55.7781 H   0  0  0  0  0  0  0  0  0  0  0  0
   33.4534   39.6387   55.9682 H   0  0  0  0  0  0  0  0  0  0  0  0
   33.2581   40.7765   58.1389 H   0  0  0  0  0  0  0  0  0  0  0  0
   32.6268   39.5253   60.1409 H   0  0  0  0  0  0  0  0  0  0  0  0
   29.7290   36.3563   61.3804 H   0  0  0  0  0  0  0  0  0  0  0  0
   30.1058   38.0931   61.2747 H   0  0  0  0  0  0  0  0  0  0  0  0
   29.0442   37.5290   63.4502 H   0  0  0  0  0  0  0  0  0  0  0  0
   30.7095   38.1156   63.6745 H   0  0  0  0  0  0  0  0  0  0  0  0
   28.5309   34.1117   64.6763 H   0  0  0  0  0  0  0  0  0  0  0  0
   27.4602   31.9524   64.5549 H   0  0  0  0  0  0  0  0  0  0  0  0
   27.3289   29.6488   65.4724 H   0  0  0  0  0  0  0  0  0  0  0  0
   28.8283   29.0286   67.3562 H   0  0  0  0  0  0  0  0  0  0  0  0
   30.4061   30.6944   68.2418 H   0  0  0  0  0  0  0  0  0  0  0  0
  1  2  2  0  0  0  0
  2  3  1  0  0  0  0
  2 20  1  0  0  0  0
  3  4  1  0  0  0  0
  3 27  1  0  0  0  0
  3 28  1  0  0  0  0
  4 19  1  0  0  0  0
  4  5  1  0  0  0  0
  5  6  1  0  0  0  0
  5 29  1  0  0  0  0
  5 30  1  0  0  0  0
  6  7  1  0  0  0  0
  6 31  1  0  0  0  0
  6 32  1  0  0  0  0
  7  8  1  0  0  0  0
  7 18  1  0  0  0  0
  7 33  1  0  0  0  0
  8 17  1  0  0  0  0
  8  9  2  0  0  0  0
  9 10  1  0  0  0  0
  9 34  1  0  0  0  0
 10 11  1  0  0  0  0
 10 12  1  0  0  0  0
 12 17  2  0  0  0  0
 12 13  1  0  0  0  0
 13 14  2  0  0  0  0
 13 35  1  0  0  0  0
 14 15  1  0  0  0  0
 14 36  1  0  0  0  0
 15 16  2  0  0  0  0
 15 37  1  0  0  0  0
 16 17  1  0  0  0  0
 16 38  1  0  0  0  0
 18 19  1  0  0  0  0
 18 39  1  0  0  0  0
 18 40  1  0  0  0  0
 19 41  1  0  0  0  0
 19 42  1  0  0  0  0
 20 21  1  0  0  0  0
 20 43  1  0  0  0  0
 21 26  2  0  0  0  0
 21 22  1  0  0  0  0
 22 23  2  0  0  0  0
 22 44  1  0  0  0  0
 23 24  1  0  0  0  0
 23 45  1  0  0  0  0
 24 25  2  0  0  0  0
 24 46  1  0  0  0  0
 25 26  1  0  0  0  0
 25 47  1  0  0  0  0
M  END
$$$$
