ZINC000000034635      none
 OpenBabel11202420153D

 27 27  0  0  0  0  0  0  0  0999 V2000
   32.3741   34.0210   55.6500 C   0  0  0  0  0  0  0  0  0  0  0  0
   33.4383   34.0868   56.7472 C   0  0  0  0  0  0  0  0  0  0  0  0
   33.2525   35.3077   57.5352 N   0  0  0  0  0  0  0  0  0  0  0  0
   32.4557   35.2934   58.6221 C   0  0  0  0  0  0  0  0  0  0  0  0
   31.6608   33.8485   59.0819 S   0  0  0  0  0  0  0  0  0  0  0  0
   32.2847   36.4166   59.3471 N   0  0  0  0  0  0  0  0  0  0  0  0
   31.4770   36.4022   60.4487 N   0  0  0  0  0  0  0  0  0  0  0  0
   32.2204   35.9702   61.6413 C   0  0  0  0  0  0  0  0  0  0  0  0
   31.2664   35.9121   62.8372 C   0  0  0  0  0  0  0  0  0  0  0  0
   30.6526   37.1915   63.0148 O   0  0  0  0  0  0  0  0  0  0  0  0
   29.9195   37.6419   61.8725 C   0  0  0  0  0  0  0  0  0  0  0  0
   30.8601   37.7186   60.6669 C   0  0  0  0  0  0  0  0  0  0  0  0
   31.3835   34.0126   56.1047 H   0  0  0  0  0  0  0  0  0  0  0  0
   32.4682   34.8909   54.9999 H   0  0  0  0  0  0  0  0  0  0  0  0
   32.5123   33.1125   55.0636 H   0  0  0  0  0  0  0  0  0  0  0  0
   34.4289   34.0951   56.2924 H   0  0  0  0  0  0  0  0  0  0  0  0
   33.3443   33.2169   57.3972 H   0  0  0  0  0  0  0  0  0  0  0  0
   33.7029   36.1264   57.2747 H   0  0  0  0  0  0  0  0  0  0  0  0
   32.7350   37.2354   59.0866 H   0  0  0  0  0  0  0  0  0  0  0  0
   33.0205   36.6810   61.8481 H   0  0  0  0  0  0  0  0  0  0  0  0
   32.6465   34.9822   61.4673 H   0  0  0  0  0  0  0  0  0  0  0  0
   31.8246   35.6482   63.7356 H   0  0  0  0  0  0  0  0  0  0  0  0
   30.4973   35.1618   62.6532 H   0  0  0  0  0  0  0  0  0  0  0  0
   29.1113   36.9422   61.6596 H   0  0  0  0  0  0  0  0  0  0  0  0
   29.5029   38.6290   62.0733 H   0  0  0  0  0  0  0  0  0  0  0  0
   30.2937   38.0065   59.7812 H   0  0  0  0  0  0  0  0  0  0  0  0
   31.6378   38.4579   60.8586 H   0  0  0  0  0  0  0  0  0  0  0  0
  1  2  1  0  0  0  0
  1 13  1  0  0  0  0
  1 14  1  0  0  0  0
  1 15  1  0  0  0  0
  2  3  1  0  0  0  0
  2 16  1  0  0  0  0
  2 17  1  0  0  0  0
  3  4  1  0  0  0  0
  3 18  1  0  0  0  0
  4  5  2  0  0  0  0
  4  6  1  0  0  0  0
  6  7  1  0  0  0  0
  6 19  1  0  0  0  0
  7 12  1  0  0  0  0
  7  8  1  0  0  0  0
  8  9  1  0  0  0  0
  8 20  1  0  0  0  0
  8 21  1  0  0  0  0
  9 10  1  0  0  0  0
  9 22  1  0  0  0  0
  9 23  1  0  0  0  0
 10 11  1  0  0  0  0
 11 12  1  0  0  0  0
 11 24  1  0  0  0  0
 11 25  1  0  0  0  0
 12 26  1  0  0  0  0
 12 27  1  0  0  0  0
M  END
$$$$
