ZINC000000000472      none
 OpenBabel11202420153D

 27 28  0  0  0  0  0  0  0  0999 V2000
   29.7464   38.3551   62.6997 C   0  0  0  0  0  0  0  0  0  0  0  0
   30.6792   38.9378   61.7872 O   0  0  0  0  0  0  0  0  0  0  0  0
   31.2196   38.1160   60.8483 C   0  0  0  0  0  0  0  0  0  0  0  0
   32.1325   38.6167   59.9316 C   0  0  0  0  0  0  0  0  0  0  0  0
   32.6816   37.7827   58.9778 C   0  0  0  0  0  0  0  0  0  0  0  0
   32.3201   36.4429   58.9366 C   0  0  0  0  0  0  0  0  0  0  0  0
   32.8777   35.5951   57.9679 N   0  0  0  0  0  0  0  0  0  0  0  0
   33.2976   35.9708   56.6996 C   0  0  0  0  0  0  0  0  0  0  0  0
   33.2340   37.3604   56.1197 C   0  0  0  0  0  0  0  0  0  0  0  0
   33.7601   34.8873   56.0850 C   0  0  0  0  0  0  0  0  0  0  0  0
   33.6451   33.8181   56.9608 N   0  0  0  0  0  0  0  0  0  0  0  0
   33.9083   32.9023   56.7796 H   0  0  0  0  0  0  0  0  0  0  0  0
   33.0998   34.2732   58.1060 C   0  0  0  0  0  0  0  0  0  0  0  0
   32.8505   33.6058   59.0937 O   0  0  0  0  0  0  0  0  0  0  0  0
   31.4021   35.9437   59.8507 C   0  0  0  0  0  0  0  0  0  0  0  0
   30.8583   36.7773   60.8079 C   0  0  0  0  0  0  0  0  0  0  0  0
   29.3926   39.1174   63.3937 H   0  0  0  0  0  0  0  0  0  0  0  0
   28.9009   37.9484   62.1448 H   0  0  0  0  0  0  0  0  0  0  0  0
   30.2342   37.5550   63.2566 H   0  0  0  0  0  0  0  0  0  0  0  0
   32.4135   39.6590   59.9635 H   0  0  0  0  0  0  0  0  0  0  0  0
   33.3925   38.1725   58.2644 H   0  0  0  0  0  0  0  0  0  0  0  0
   34.1170   37.9219   56.4245 H   0  0  0  0  0  0  0  0  0  0  0  0
   32.3390   37.8652   56.4831 H   0  0  0  0  0  0  0  0  0  0  0  0
   33.2001   37.2990   55.0320 H   0  0  0  0  0  0  0  0  0  0  0  0
   34.1577   34.8469   55.0816 H   0  0  0  0  0  0  0  0  0  0  0  0
   31.1169   34.9027   59.8161 H   0  0  0  0  0  0  0  0  0  0  0  0
   30.1475   36.3881   61.5219 H   0  0  0  0  0  0  0  0  0  0  0  0
  1  2  1  0  0  0  0
  1 17  1  0  0  0  0
  1 18  1  0  0  0  0
  1 19  1  0  0  0  0
  2  3  1  0  0  0  0
  3 16  2  0  0  0  0
  3  4  1  0  0  0  0
  4  5  2  0  0  0  0
  4 20  1  0  0  0  0
  5  6  1  0  0  0  0
  5 21  1  0  0  0  0
  6  7  1  0  0  0  0
  6 15  2  0  0  0  0
  7 13  1  0  0  0  0
  7  8  1  0  0  0  0
  8  9  1  0  0  0  0
  8 10  2  0  0  0  0
  9 22  1  0  0  0  0
  9 23  1  0  0  0  0
  9 24  1  0  0  0  0
 10 11  1  0  0  0  0
 10 25  1  0  0  0  0
 11 12  1  0  0  0  0
 11 13  1  0  0  0  0
 13 14  2  0  0  0  0
 15 16  1  0  0  0  0
 15 26  1  0  0  0  0
 16 27  1  0  0  0  0
M  END
$$$$
