ZINC000000041021      none
 OpenBabel11202420153D

 33 34  0  0  0  0  0  0  0  0999 V2000
   35.0945   31.6335   54.3784 C   0  0  0  0  0  0  0  0  0  0  0  0
   34.5987   32.8151   55.1718 C   0  0  0  0  0  0  0  0  0  0  0  0
   34.1467   32.6513   56.2856 O   0  0  0  0  0  0  0  0  0  0  0  0
   34.6626   34.0544   54.6458 N   0  0  0  0  0  0  0  0  0  0  0  0
   34.2044   35.1598   55.3897 C   0  0  0  0  0  0  0  0  0  0  0  0
   34.2129   36.4523   54.9934 C   0  0  0  0  0  0  0  0  0  0  0  0
   34.7184   36.9622   53.6684 C   0  0  0  0  0  0  0  0  0  0  0  0
   33.6820   37.2206   55.9955 N   0  0  0  0  0  0  0  0  0  0  0  0
   33.5135   38.6751   55.9518 C   0  0  0  0  0  0  0  0  0  0  0  0
   33.3319   36.3953   57.0702 N   0  0  0  0  0  0  0  0  0  0  0  0
   32.7649   36.8154   58.2775 C   0  0  0  0  0  0  0  0  0  0  0  0
   31.9135   35.9705   58.9777 C   0  0  0  0  0  0  0  0  0  0  0  0
   31.3597   36.3863   60.1726 C   0  0  0  0  0  0  0  0  0  0  0  0
   31.6430   37.6466   60.6663 C   0  0  0  0  0  0  0  0  0  0  0  0
   32.4858   38.4924   59.9687 C   0  0  0  0  0  0  0  0  0  0  0  0
   33.0474   38.0806   58.7761 C   0  0  0  0  0  0  0  0  0  0  0  0
   33.6367   35.1236   56.7380 C   0  0  0  0  0  0  0  0  0  0  0  0
   33.4708   34.1342   57.4285 O   0  0  0  0  0  0  0  0  0  0  0  0
   34.9671   30.7234   54.9643 H   0  0  0  0  0  0  0  0  0  0  0  0
   34.5246   31.5525   53.4528 H   0  0  0  0  0  0  0  0  0  0  0  0
   36.1502   31.7703   54.1444 H   0  0  0  0  0  0  0  0  0  0  0  0
   35.0240   34.1854   53.7552 H   0  0  0  0  0  0  0  0  0  0  0  0
   35.0796   36.1253   53.0708 H   0  0  0  0  0  0  0  0  0  0  0  0
   33.9081   37.4637   53.1391 H   0  0  0  0  0  0  0  0  0  0  0  0
   35.5330   37.6666   53.8370 H   0  0  0  0  0  0  0  0  0  0  0  0
   34.3717   39.1547   56.4224 H   0  0  0  0  0  0  0  0  0  0  0  0
   33.4388   39.0012   54.9143 H   0  0  0  0  0  0  0  0  0  0  0  0
   32.6045   38.9517   56.4859 H   0  0  0  0  0  0  0  0  0  0  0  0
   31.6880   34.9879   58.5903 H   0  0  0  0  0  0  0  0  0  0  0  0
   30.7011   35.7281   60.7199 H   0  0  0  0  0  0  0  0  0  0  0  0
   31.2048   37.9712   61.5984 H   0  0  0  0  0  0  0  0  0  0  0  0
   32.7053   39.4759   60.3571 H   0  0  0  0  0  0  0  0  0  0  0  0
   33.7058   38.7414   58.2319 H   0  0  0  0  0  0  0  0  0  0  0  0
  1  2  1  0  0  0  0
  1 19  1  0  0  0  0
  1 20  1  0  0  0  0
  1 21  1  0  0  0  0
  2  3  2  0  0  0  0
  2  4  1  0  0  0  0
  4  5  1  0  0  0  0
  4 22  1  0  0  0  0
  5 17  1  0  0  0  0
  5  6  2  0  0  0  0
  6  7  1  0  0  0  0
  6  8  1  0  0  0  0
  7 23  1  0  0  0  0
  7 24  1  0  0  0  0
  7 25  1  0  0  0  0
  8  9  1  0  0  0  0
  8 10  1  0  0  0  0
  9 26  1  0  0  0  0
  9 27  1  0  0  0  0
  9 28  1  0  0  0  0
 10 11  1  0  0  0  0
 10 17  1  0  0  0  0
 11 16  2  0  0  0  0
 11 12  1  0  0  0  0
 12 13  2  0  0  0  0
 12 29  1  0  0  0  0
 13 14  1  0  0  0  0
 13 30  1  0  0  0  0
 14 15  2  0  0  0  0
 14 31  1  0  0  0  0
 15 16  1  0  0  0  0
 15 32  1  0  0  0  0
 16 33  1  0  0  0  0
 17 18  2  0  0  0  0
M  END
$$$$
