ZINC000000004726      none
 OpenBabel11202420153D

 17 17  0  0  0  0  0  0  0  0999 V2000
   32.3388   34.3152   61.4578 N   0  0  0  0  0  0  0  0  0  0  0  0
   31.1688   34.9156   60.4511 S   0  0  0  0  0  0  0  0  0  0  0  0
   30.1531   35.4490   61.2896 O   0  0  0  0  0  0  0  0  0  0  0  0
   30.9240   33.9110   59.4764 O   0  0  0  0  0  0  0  0  0  0  0  0
   31.8725   36.2827   59.5907 C   0  0  0  0  0  0  0  0  0  0  0  0
   31.7741   37.5563   60.1192 C   0  0  0  0  0  0  0  0  0  0  0  0
   32.3309   38.6284   59.4476 C   0  0  0  0  0  0  0  0  0  0  0  0
   32.9769   38.4283   58.2406 C   0  0  0  0  0  0  0  0  0  0  0  0
   33.6696   39.7754   57.3925 Cl  0  0  0  0  0  0  0  0  0  0  0  0
   33.0700   37.1542   57.7094 C   0  0  0  0  0  0  0  0  0  0  0  0
   32.5178   36.0821   58.3848 C   0  0  0  0  0  0  0  0  0  0  0  0
   32.1462   33.5513   62.0238 H   0  0  0  0  0  0  0  0  0  0  0  0
   33.2164   34.7273   61.4814 H   0  0  0  0  0  0  0  0  0  0  0  0
   31.2661   37.7131   61.0592 H   0  0  0  0  0  0  0  0  0  0  0  0
   32.2578   39.6228   59.8626 H   0  0  0  0  0  0  0  0  0  0  0  0
   33.5738   36.9973   56.7670 H   0  0  0  0  0  0  0  0  0  0  0  0
   32.5902   35.0875   57.9701 H   0  0  0  0  0  0  0  0  0  0  0  0
  1  2  1  0  0  0  0
  1 12  1  0  0  0  0
  1 13  1  0  0  0  0
  2  3  2  0  0  0  0
  2  4  2  0  0  0  0
  2  5  1  0  0  0  0
  5 11  2  0  0  0  0
  5  6  1  0  0  0  0
  6  7  2  0  0  0  0
  6 14  1  0  0  0  0
  7  8  1  0  0  0  0
  7 15  1  0  0  0  0
  8  9  1  0  0  0  0
  8 10  2  0  0  0  0
 10 11  1  0  0  0  0
 10 16  1  0  0  0  0
 11 17  1  0  0  0  0
M  END
$$$$
