ZINC000000042985      none
 OpenBabel11202420153D

 34 36  0  0  1  0  0  0  0  0999 V2000
   31.3296   32.8663   59.6267 N   0  0  0  0  0  0  0  0  0  0  0  0
   31.1641   33.8936   60.0821 C   0  0  0  0  0  0  0  0  0  0  0  0
   30.9495   35.2249   60.6723 C   0  0  1  0  0  0  0  0  0  0  0  0
   29.8809   35.4354   60.7154 H   0  0  0  0  0  0  0  0  0  0  0  0
   31.5328   35.2559   62.0865 C   0  0  0  0  0  0  0  0  0  0  0  0
   30.9113   36.3891   62.8615 C   0  0  0  0  0  0  0  0  0  0  0  0
   29.7795   36.7458   62.6114 O   0  0  0  0  0  0  0  0  0  0  0  0
   31.6747   37.0583   63.9249 C   0  0  0  0  0  0  0  0  0  0  0  0
   31.4469   38.4092   64.2099 C   0  0  0  0  0  0  0  0  0  0  0  0
   32.1619   39.0287   65.2112 C   0  0  0  0  0  0  0  0  0  0  0  0
   33.1139   38.3194   65.9285 C   0  0  0  0  0  0  0  0  0  0  0  0
   33.8161   38.9346   66.9052 F   0  0  0  0  0  0  0  0  0  0  0  0
   33.3485   36.9815   65.6475 C   0  0  0  0  0  0  0  0  0  0  0  0
   32.6367   36.3485   64.6525 C   0  0  0  0  0  0  0  0  0  0  0  0
   31.6328   36.2665   59.8242 C   0  0  0  0  0  0  0  0  0  0  0  0
   31.5682   37.5998   60.1840 C   0  0  0  0  0  0  0  0  0  0  0  0
   32.1988   38.5582   59.4128 C   0  0  0  0  0  0  0  0  0  0  0  0
   32.8873   38.1855   58.2697 C   0  0  0  0  0  0  0  0  0  0  0  0
   32.9476   36.8430   57.9042 C   0  0  0  0  0  0  0  0  0  0  0  0
   32.3182   35.8873   58.6852 C   0  0  0  0  0  0  0  0  0  0  0  0
   33.6752   36.7363   56.7542 O   0  0  0  0  0  0  0  0  0  0  0  0
   33.7135   38.0642   56.1989 C   0  0  0  0  0  0  0  0  0  0  0  0
   33.5772   38.9199   57.3488 O   0  0  0  0  0  0  0  0  0  0  0  0
   32.6115   35.4021   62.0314 H   0  0  0  0  0  0  0  0  0  0  0  0
   31.3192   34.3123   62.5884 H   0  0  0  0  0  0  0  0  0  0  0  0
   30.7090   38.9638   63.6491 H   0  0  0  0  0  0  0  0  0  0  0  0
   31.9841   40.0703   65.4349 H   0  0  0  0  0  0  0  0  0  0  0  0
   34.0911   36.4348   66.2098 H   0  0  0  0  0  0  0  0  0  0  0  0
   32.8208   35.3069   64.4341 H   0  0  0  0  0  0  0  0  0  0  0  0
   31.0277   37.8927   61.0720 H   0  0  0  0  0  0  0  0  0  0  0  0
   32.1502   39.5986   59.6986 H   0  0  0  0  0  0  0  0  0  0  0  0
   32.3634   34.8455   58.4041 H   0  0  0  0  0  0  0  0  0  0  0  0
   32.8833   38.2149   55.5089 H   0  0  0  0  0  0  0  0  0  0  0  0
   34.6656   38.2430   55.6991 H   0  0  0  0  0  0  0  0  0  0  0  0
  1  2  3  0  0  0  0
  2  3  1  0  0  0  0
  3  4  1  1  0  0  0
  3  5  1  0  0  0  0
  3 15  1  0  0  0  0
  5  6  1  0  0  0  0
  5 24  1  0  0  0  0
  5 25  1  0  0  0  0
  6  7  2  0  0  0  0
  6  8  1  0  0  0  0
  8 14  2  0  0  0  0
  8  9  1  0  0  0  0
  9 10  2  0  0  0  0
  9 26  1  0  0  0  0
 10 11  1  0  0  0  0
 10 27  1  0  0  0  0
 11 12  1  0  0  0  0
 11 13  2  0  0  0  0
 13 14  1  0  0  0  0
 13 28  1  0  0  0  0
 14 29  1  0  0  0  0
 15 20  2  0  0  0  0
 15 16  1  0  0  0  0
 16 17  2  0  0  0  0
 16 30  1  0  0  0  0
 17 18  1  0  0  0  0
 17 31  1  0  0  0  0
 18 23  1  0  0  0  0
 18 19  2  0  0  0  0
 19 20  1  0  0  0  0
 19 21  1  0  0  0  0
 20 32  1  0  0  0  0
 21 22  1  0  0  0  0
 22 23  1  0  0  0  0
 22 33  1  0  0  0  0
 22 34  1  0  0  0  0
M  END
$$$$
