ZINC000000032144      none
 OpenBabel11202420153D

 22 23  0  0  0  0  0  0  0  0999 V2000
   32.0172   34.3317   59.4363 C   0  0  0  0  0  0  0  0  0  0  0  0
   32.4118   34.7687   58.0949 N   0  0  0  0  0  0  0  0  0  0  0  0
   32.2939   33.9129   57.0463 C   0  0  0  0  0  0  0  0  0  0  0  0
   32.6171   34.2269   55.8286 N   0  0  0  0  0  0  0  0  0  0  0  0
   33.1137   35.4503   55.5175 C   0  0  0  0  0  0  0  0  0  0  0  0
   33.4661   35.7869   54.2089 C   0  0  0  0  0  0  0  0  0  0  0  0
   33.9660   37.0408   53.9385 C   0  0  0  0  0  0  0  0  0  0  0  0
   34.1247   37.9773   54.9518 C   0  0  0  0  0  0  0  0  0  0  0  0
   34.6640   39.3185   54.6335 N   0  0  0  0  0  0  0  0  0  0  0  0
   34.9664   39.5968   53.4869 O   0  0  0  0  0  0  0  0  0  0  0  0
   34.8053   40.1437   55.5180 O   0  0  0  0  0  0  0  0  0  0  0  0
   33.7841   37.6689   56.2505 C   0  0  0  0  0  0  0  0  0  0  0  0
   33.2764   36.4052   56.5454 C   0  0  0  0  0  0  0  0  0  0  0  0
   32.8954   36.0196   57.9124 C   0  0  0  0  0  0  0  0  0  0  0  0
   33.0110   36.7950   58.8435 O   0  0  0  0  0  0  0  0  0  0  0  0
   30.9657   34.5675   59.6007 H   0  0  0  0  0  0  0  0  0  0  0  0
   32.6256   34.8466   60.1798 H   0  0  0  0  0  0  0  0  0  0  0  0
   32.1666   33.2557   59.5265 H   0  0  0  0  0  0  0  0  0  0  0  0
   31.9079   32.9220   57.2347 H   0  0  0  0  0  0  0  0  0  0  0  0
   33.3469   35.0671   53.4126 H   0  0  0  0  0  0  0  0  0  0  0  0
   34.2384   37.2993   52.9259 H   0  0  0  0  0  0  0  0  0  0  0  0
   33.9096   38.4011   57.0343 H   0  0  0  0  0  0  0  0  0  0  0  0
  1  2  1  0  0  0  0
  1 16  1  0  0  0  0
  1 17  1  0  0  0  0
  1 18  1  0  0  0  0
  2 14  1  0  0  0  0
  2  3  1  0  0  0  0
  3  4  2  0  0  0  0
  3 19  1  0  0  0  0
  4  5  1  0  0  0  0
  5 13  2  0  0  0  0
  5  6  1  0  0  0  0
  6  7  2  0  0  0  0
  6 20  1  0  0  0  0
  7  8  1  0  0  0  0
  7 21  1  0  0  0  0
  8  9  1  0  0  0  0
  8 12  2  0  0  0  0
  9 10  2  0  0  0  0
  9 11  2  0  0  0  0
 12 13  1  0  0  0  0
 12 22  1  0  0  0  0
 13 14  1  0  0  0  0
 14 15  2  0  0  0  0
M  END
$$$$
