ZINC000000049962      none
 OpenBabel11202420153D

 39 41  0  0  0  0  0  0  0  0999 V2000
   32.8792   39.9204   58.4595 C   0  0  0  0  0  0  0  0  0  0  0  0
   33.0694   39.1036   57.2743 O   0  0  0  0  0  0  0  0  0  0  0  0
   34.0567   39.4678   56.4322 C   0  0  0  0  0  0  0  0  0  0  0  0
   34.7399   40.4412   56.6818 O   0  0  0  0  0  0  0  0  0  0  0  0
   34.3077   38.6856   55.2096 C   0  0  0  0  0  0  0  0  0  0  0  0
   34.8169   39.3100   54.0672 C   0  0  0  0  0  0  0  0  0  0  0  0
   35.0493   38.5728   52.9273 C   0  0  0  0  0  0  0  0  0  0  0  0
   34.7810   37.2128   52.9054 C   0  0  0  0  0  0  0  0  0  0  0  0
   34.2787   36.5816   54.0245 C   0  0  0  0  0  0  0  0  0  0  0  0
   34.0321   37.3091   55.1824 C   0  0  0  0  0  0  0  0  0  0  0  0
   33.5212   36.6773   56.3081 N   0  0  0  0  0  0  0  0  0  0  0  0
   32.8327   35.3909   56.1770 C   0  0  0  0  0  0  0  0  0  0  0  0
   32.3910   34.9364   57.4979 N   0  0  0  0  0  0  0  0  0  0  0  0
   32.5860   35.6000   58.7183 N   0  0  0  0  0  0  0  0  0  0  0  0
   32.0450   34.8760   59.6549 C   0  0  0  0  0  0  0  0  0  0  0  0
   32.0220   35.2133   61.0947 C   0  0  0  0  0  0  0  0  0  0  0  0
   31.4034   34.3557   62.0054 C   0  0  0  0  0  0  0  0  0  0  0  0
   31.3900   34.6736   63.3479 C   0  0  0  0  0  0  0  0  0  0  0  0
   31.9782   35.8450   63.7904 C   0  0  0  0  0  0  0  0  0  0  0  0
   32.5885   36.7020   62.8920 C   0  0  0  0  0  0  0  0  0  0  0  0
   32.6138   36.3930   61.5475 C   0  0  0  0  0  0  0  0  0  0  0  0
   31.5133   33.7640   59.1019 O   0  0  0  0  0  0  0  0  0  0  0  0
   31.7237   33.7962   57.7745 C   0  0  0  0  0  0  0  0  0  0  0  0
   31.2338   32.6090   56.6425 S   0  0  0  0  0  0  0  0  0  0  0  0
   33.7910   39.9124   59.0565 H   0  0  0  0  0  0  0  0  0  0  0  0
   32.6485   40.9435   58.1625 H   0  0  0  0  0  0  0  0  0  0  0  0
   32.0553   39.5187   59.0491 H   0  0  0  0  0  0  0  0  0  0  0  0
   35.0275   40.3692   54.0783 H   0  0  0  0  0  0  0  0  0  0  0  0
   35.4431   39.0567   52.0457 H   0  0  0  0  0  0  0  0  0  0  0  0
   34.9667   36.6439   52.0065 H   0  0  0  0  0  0  0  0  0  0  0  0
   34.0727   35.5218   53.9992 H   0  0  0  0  0  0  0  0  0  0  0  0
   33.6203   37.0875   57.1815 H   0  0  0  0  0  0  0  0  0  0  0  0
   31.9671   35.5069   55.5247 H   0  0  0  0  0  0  0  0  0  0  0  0
   33.5142   34.6559   55.7490 H   0  0  0  0  0  0  0  0  0  0  0  0
   30.9400   33.4432   61.6606 H   0  0  0  0  0  0  0  0  0  0  0  0
   30.9155   34.0086   64.0543 H   0  0  0  0  0  0  0  0  0  0  0  0
   31.9612   36.0915   64.8418 H   0  0  0  0  0  0  0  0  0  0  0  0
   33.0465   37.6146   63.2438 H   0  0  0  0  0  0  0  0  0  0  0  0
   33.0908   37.0626   60.8473 H   0  0  0  0  0  0  0  0  0  0  0  0
  1  2  1  0  0  0  0
  1 25  1  0  0  0  0
  1 26  1  0  0  0  0
  1 27  1  0  0  0  0
  2  3  1  0  0  0  0
  3  4  2  0  0  0  0
  3  5  1  0  0  0  0
  5 10  2  0  0  0  0
  5  6  1  0  0  0  0
  6  7  2  0  0  0  0
  6 28  1  0  0  0  0
  7  8  1  0  0  0  0
  7 29  1  0  0  0  0
  8  9  2  0  0  0  0
  8 30  1  0  0  0  0
  9 10  1  0  0  0  0
  9 31  1  0  0  0  0
 10 11  1  0  0  0  0
 11 12  1  0  0  0  0
 11 32  1  0  0  0  0
 12 13  1  0  0  0  0
 12 33  1  0  0  0  0
 12 34  1  0  0  0  0
 13 23  1  0  0  0  0
 13 14  1  0  0  0  0
 14 15  2  0  0  0  0
 15 16  1  0  0  0  0
 15 22  1  0  0  0  0
 16 21  2  0  0  0  0
 16 17  1  0  0  0  0
 17 18  2  0  0  0  0
 17 35  1  0  0  0  0
 18 19  1  0  0  0  0
 18 36  1  0  0  0  0
 19 20  2  0  0  0  0
 19 37  1  0  0  0  0
 20 21  1  0  0  0  0
 20 38  1  0  0  0  0
 21 39  1  0  0  0  0
 22 23  1  0  0  0  0
 23 24  2  0  0  0  0
M  END
$$$$
