ZINC000000050406      none
 OpenBabel11202420153D

 37 38  0  0  1  0  0  0  0  0999 V2000
   33.1168   37.8487   69.1810 C   0  0  0  0  0  0  0  0  0  0  0  0
   31.7678   37.2228   68.9374 C   0  0  0  0  0  0  0  0  0  0  0  0
   31.3099   36.4442   69.7389 O   0  0  0  0  0  0  0  0  0  0  0  0
   30.9902   37.5685   67.6937 C   0  0  1  0  0  0  0  0  0  0  0  0
   29.4906   37.4780   67.9831 C   0  0  0  0  0  0  0  0  0  0  0  0
   31.3233   38.8936   67.2715 O   0  0  0  0  0  0  0  0  0  0  0  0
   30.9130   39.2807   66.0493 C   0  0  0  0  0  0  0  0  0  0  0  0
   30.8966   40.6210   65.7551 N   0  0  0  0  0  0  0  0  0  0  0  0
   30.5163   38.4041   65.0995 C   0  0  0  0  0  0  0  0  0  0  0  0
   30.1071   38.9028   63.8209 C   0  0  0  0  0  0  0  0  0  0  0  0
   29.7826   39.2984   62.8068 N   0  0  0  0  0  0  0  0  0  0  0  0
   30.4926   36.9195   65.3461 C   0  0  1  0  0  0  0  0  0  0  0  0
   29.4675   36.5978   65.5303 H   0  0  0  0  0  0  0  0  0  0  0  0
   31.0359   36.2001   64.1385 C   0  0  0  0  0  0  0  0  0  0  0  0
   30.5880   34.9288   63.8318 C   0  0  0  0  0  0  0  0  0  0  0  0
   31.0833   34.2707   62.7216 C   0  0  0  0  0  0  0  0  0  0  0  0
   32.0335   34.8800   61.9236 C   0  0  0  0  0  0  0  0  0  0  0  0
   32.4849   36.1493   62.2332 C   0  0  0  0  0  0  0  0  0  0  0  0
   31.9865   36.8093   63.3408 C   0  0  0  0  0  0  0  0  0  0  0  0
   31.3581   36.5932   66.5677 C   0  0  0  0  0  0  0  0  0  0  0  0
   31.0993   35.2115   67.0041 C   0  0  0  0  0  0  0  0  0  0  0  0
   30.8995   34.1450   67.3410 N   0  0  0  0  0  0  0  0  0  0  0  0
   32.7808   36.7472   66.2232 C   0  0  0  0  0  0  0  0  0  0  0  0
   33.8789   36.8660   65.9573 N   0  0  0  0  0  0  0  0  0  0  0  0
   32.9914   38.7774   69.7376 H   0  0  0  0  0  0  0  0  0  0  0  0
   33.7378   37.1616   69.7558 H   0  0  0  0  0  0  0  0  0  0  0  0
   33.5972   38.0600   68.2256 H   0  0  0  0  0  0  0  0  0  0  0  0
   29.2401   36.4620   68.2883 H   0  0  0  0  0  0  0  0  0  0  0  0
   29.2324   38.1718   68.7830 H   0  0  0  0  0  0  0  0  0  0  0  0
   28.9308   37.7357   67.0839 H   0  0  0  0  0  0  0  0  0  0  0  0
   31.1772   41.2673   66.4219 H   0  0  0  0  0  0  0  0  0  0  0  0
   30.6047   40.9220   64.8806 H   0  0  0  0  0  0  0  0  0  0  0  0
   29.8486   34.4512   64.4576 H   0  0  0  0  0  0  0  0  0  0  0  0
   30.7303   33.2791   62.4796 H   0  0  0  0  0  0  0  0  0  0  0  0
   32.4228   34.3644   61.0582 H   0  0  0  0  0  0  0  0  0  0  0  0
   33.2273   36.6254   61.6097 H   0  0  0  0  0  0  0  0  0  0  0  0
   32.3395   37.8008   63.5829 H   0  0  0  0  0  0  0  0  0  0  0  0
  1  2  1  0  0  0  0
  1 25  1  0  0  0  0
  1 26  1  0  0  0  0
  1 27  1  0  0  0  0
  2  3  2  0  0  0  0
  4  2  1  1  0  0  0
  4 20  1  0  0  0  0
  4  5  1  0  0  0  0
  4  6  1  0  0  0  0
  5 28  1  0  0  0  0
  5 29  1  0  0  0  0
  5 30  1  0  0  0  0
  6  7  1  0  0  0  0
  7  8  1  0  0  0  0
  7  9  2  0  0  0  0
  8 31  1  0  0  0  0
  8 32  1  0  0  0  0
  9 10  1  0  0  0  0
  9 12  1  0  0  0  0
 10 11  3  0  0  0  0
 12 13  1  1  0  0  0
 12 14  1  0  0  0  0
 12 20  1  0  0  0  0
 14 19  2  0  0  0  0
 14 15  1  0  0  0  0
 15 16  2  0  0  0  0
 15 33  1  0  0  0  0
 16 17  1  0  0  0  0
 16 34  1  0  0  0  0
 17 18  2  0  0  0  0
 17 35  1  0  0  0  0
 18 19  1  0  0  0  0
 18 36  1  0  0  0  0
 19 37  1  0  0  0  0
 20 21  1  0  0  0  0
 20 23  1  0  0  0  0
 21 22  3  0  0  0  0
 23 24  3  0  0  0  0
M  END
$$$$
