ZINC000000026374      none
 OpenBabel11202420153D

 37 38  0  0  0  0  0  0  0  0999 V2000
   30.1409   36.5562   62.6350 C   0  0  0  0  0  0  0  0  0  0  0  0
   31.5981   37.0057   62.7583 C   0  0  0  0  0  0  0  0  0  0  0  0
   32.4449   35.8493   63.2939 C   0  0  0  0  0  0  0  0  0  0  0  0
   32.1205   37.4260   61.3831 C   0  0  0  0  0  0  0  0  0  0  0  0
   32.0323   36.2405   60.4199 C   0  0  0  0  0  0  0  0  0  0  0  0
   32.5325   36.6430   59.1030 N   0  0  0  0  0  0  0  0  0  0  0  0
   32.5504   35.7555   58.0889 C   0  0  0  0  0  0  0  0  0  0  0  0
   32.1511   34.6203   58.2670 O   0  0  0  0  0  0  0  0  0  0  0  0
   33.0528   36.1597   56.7664 C   0  0  0  0  0  0  0  0  0  0  0  0
   33.0816   35.2591   55.7219 C   0  0  0  0  0  0  0  0  0  0  0  0
   33.5271   35.5929   54.5035 N   0  0  0  0  0  0  0  0  0  0  0  0
   33.5206   34.9189   53.8060 H   0  0  0  0  0  0  0  0  0  0  0  0
   34.0003   36.8511   54.2004 C   0  0  0  0  0  0  0  0  0  0  0  0
   34.4579   37.1450   52.9183 C   0  0  0  0  0  0  0  0  0  0  0  0
   34.9281   38.4066   52.6278 C   0  0  0  0  0  0  0  0  0  0  0  0
   34.9529   39.3956   53.6010 C   0  0  0  0  0  0  0  0  0  0  0  0
   34.5046   39.1276   54.8753 C   0  0  0  0  0  0  0  0  0  0  0  0
   34.0261   37.8542   55.1839 C   0  0  0  0  0  0  0  0  0  0  0  0
   33.5386   37.5296   56.5375 C   0  0  0  0  0  0  0  0  0  0  0  0
   33.5386   38.3607   57.4287 O   0  0  0  0  0  0  0  0  0  0  0  0
   30.0781   35.7117   61.9487 H   0  0  0  0  0  0  0  0  0  0  0  0
   29.7687   36.2567   63.6147 H   0  0  0  0  0  0  0  0  0  0  0  0
   29.5377   37.3800   62.2534 H   0  0  0  0  0  0  0  0  0  0  0  0
   31.6610   37.8502   63.4446 H   0  0  0  0  0  0  0  0  0  0  0  0
   33.4831   36.1696   63.3818 H   0  0  0  0  0  0  0  0  0  0  0  0
   32.0727   35.5499   64.2736 H   0  0  0  0  0  0  0  0  0  0  0  0
   32.3821   35.0048   62.6077 H   0  0  0  0  0  0  0  0  0  0  0  0
   33.1587   37.7462   61.4711 H   0  0  0  0  0  0  0  0  0  0  0  0
   31.5173   38.2498   61.0016 H   0  0  0  0  0  0  0  0  0  0  0  0
   30.9942   35.9202   60.3319 H   0  0  0  0  0  0  0  0  0  0  0  0
   32.6356   35.4167   60.8016 H   0  0  0  0  0  0  0  0  0  0  0  0
   32.8509   37.5482   58.9611 H   0  0  0  0  0  0  0  0  0  0  0  0
   32.7289   34.2524   55.8910 H   0  0  0  0  0  0  0  0  0  0  0  0
   34.4437   36.3840   52.1520 H   0  0  0  0  0  0  0  0  0  0  0  0
   35.2816   38.6285   51.6317 H   0  0  0  0  0  0  0  0  0  0  0  0
   35.3249   40.3799   53.3579 H   0  0  0  0  0  0  0  0  0  0  0  0
   34.5240   39.8986   55.6314 H   0  0  0  0  0  0  0  0  0  0  0  0
  1  2  1  0  0  0  0
  1 21  1  0  0  0  0
  1 22  1  0  0  0  0
  1 23  1  0  0  0  0
  2  3  1  0  0  0  0
  2  4  1  0  0  0  0
  2 24  1  0  0  0  0
  3 25  1  0  0  0  0
  3 26  1  0  0  0  0
  3 27  1  0  0  0  0
  4  5  1  0  0  0  0
  4 28  1  0  0  0  0
  4 29  1  0  0  0  0
  5  6  1  0  0  0  0
  5 30  1  0  0  0  0
  5 31  1  0  0  0  0
  6  7  1  0  0  0  0
  6 32  1  0  0  0  0
  7  8  2  0  0  0  0
  7  9  1  0  0  0  0
  9 19  1  0  0  0  0
  9 10  2  0  0  0  0
 10 11  1  0  0  0  0
 10 33  1  0  0  0  0
 11 12  1  0  0  0  0
 11 13  1  0  0  0  0
 13 18  2  0  0  0  0
 13 14  1  0  0  0  0
 14 15  2  0  0  0  0
 14 34  1  0  0  0  0
 15 16  1  0  0  0  0
 15 35  1  0  0  0  0
 16 17  2  0  0  0  0
 16 36  1  0  0  0  0
 17 18  1  0  0  0  0
 17 37  1  0  0  0  0
 18 19  1  0  0  0  0
 19 20  2  0  0  0  0
M  END
$$$$
