ZINC000000037195      none
 OpenBabel11202420153D

 23 24  0  0  0  0  0  0  0  0999 V2000
   34.5474   33.6478   54.6837 C   0  0  0  0  0  0  0  0  0  0  0  0
   33.6900   33.9876   55.8219 N   0  0  0  0  0  0  0  0  0  0  0  0
   32.7086   33.1946   56.3188 C   0  0  0  0  0  0  0  0  0  0  0  0
   32.1498   33.8551   57.3594 C   0  0  0  0  0  0  0  0  0  0  0  0
   31.0373   33.3932   58.2196 N   0  0  0  0  0  0  0  0  0  0  0  0
   30.5244   32.3066   58.0208 O   0  0  0  0  0  0  0  0  0  0  0  0
   30.6347   34.0999   59.1264 O   0  0  0  0  0  0  0  0  0  0  0  0
   32.8521   35.0807   57.4519 C   0  0  0  0  0  0  0  0  0  0  0  0
   32.6147   36.1554   58.4342 C   0  0  0  0  0  0  0  0  0  0  0  0
   32.1924   35.8846   59.5405 O   0  0  0  0  0  0  0  0  0  0  0  0
   32.8664   37.4376   58.1041 N   0  0  0  0  0  0  0  0  0  0  0  0
   32.6928   38.5228   58.9087 C   0  0  0  0  0  0  0  0  0  0  0  0
   33.0523   39.6165   58.2019 C   0  0  0  0  0  0  0  0  0  0  0  0
   33.4673   39.1934   56.9315 C   0  0  0  0  0  0  0  0  0  0  0  0
   33.3531   37.8929   56.8717 N   0  0  0  0  0  0  0  0  0  0  0  0
   33.7549   35.0826   56.4908 N   0  0  0  0  0  0  0  0  0  0  0  0
   34.0840   33.9996   53.7620 H   0  0  0  0  0  0  0  0  0  0  0  0
   35.5199   34.1246   54.8064 H   0  0  0  0  0  0  0  0  0  0  0  0
   34.6764   32.5665   54.6360 H   0  0  0  0  0  0  0  0  0  0  0  0
   32.4263   32.2185   55.9528 H   0  0  0  0  0  0  0  0  0  0  0  0
   32.3291   38.5114   59.9256 H   0  0  0  0  0  0  0  0  0  0  0  0
   33.0270   40.6369   58.5543 H   0  0  0  0  0  0  0  0  0  0  0  0
   33.8182   39.8338   56.1357 H   0  0  0  0  0  0  0  0  0  0  0  0
  1  2  1  0  0  0  0
  1 17  1  0  0  0  0
  1 18  1  0  0  0  0
  1 19  1  0  0  0  0
  2 16  1  0  0  0  0
  2  3  1  0  0  0  0
  3  4  2  0  0  0  0
  3 20  1  0  0  0  0
  4  5  1  0  0  0  0
  4  8  1  0  0  0  0
  5  6  2  0  0  0  0
  5  7  2  0  0  0  0
  8  9  1  0  0  0  0
  8 16  2  0  0  0  0
  9 10  2  0  0  0  0
  9 11  1  0  0  0  0
 11 15  1  0  0  0  0
 11 12  1  0  0  0  0
 12 13  2  0  0  0  0
 12 21  1  0  0  0  0
 13 14  1  0  0  0  0
 13 22  1  0  0  0  0
 14 15  2  0  0  0  0
 14 23  1  0  0  0  0
M  END
$$$$
