ZINC000000030914      none
 OpenBabel11202420163D

 33 34  0  0  1  0  0  0  0  0999 V2000
   31.1498   35.6868   61.9587 C   0  0  0  0  0  0  0  0  0  0  0  0
   31.4112   37.1432   61.5690 C   0  0  1  0  0  0  0  0  0  0  0  0
   30.5006   37.7258   61.7094 H   0  0  0  0  0  0  0  0  0  0  0  0
   32.4502   37.6773   62.3919 O   0  0  0  0  0  0  0  0  0  0  0  0
   32.2294   37.6921   63.7327 C   0  0  0  0  0  0  0  0  0  0  0  0
   31.1536   38.3975   64.2520 C   0  0  0  0  0  0  0  0  0  0  0  0
   30.9282   38.4065   65.6149 C   0  0  0  0  0  0  0  0  0  0  0  0
   31.7797   37.7218   66.4621 C   0  0  0  0  0  0  0  0  0  0  0  0
   32.8559   37.0226   65.9475 C   0  0  0  0  0  0  0  0  0  0  0  0
   33.0827   37.0062   64.5849 C   0  0  0  0  0  0  0  0  0  0  0  0
   31.8314   37.2087   60.1233 C   0  0  0  0  0  0  0  0  0  0  0  0
   31.4230   36.3824   59.3349 O   0  0  0  0  0  0  0  0  0  0  0  0
   32.6611   38.1856   59.7064 N   0  0  0  0  0  0  0  0  0  0  0  0
   33.0516   38.2465   58.3630 C   0  0  0  0  0  0  0  0  0  0  0  0
   33.3452   39.4720   57.7794 C   0  0  0  0  0  0  0  0  0  0  0  0
   33.7252   39.5311   56.4529 C   0  0  0  0  0  0  0  0  0  0  0  0
   33.8248   38.3684   55.7075 C   0  0  0  0  0  0  0  0  0  0  0  0
   34.2017   38.4281   54.4115 F   0  0  0  0  0  0  0  0  0  0  0  0
   33.5325   37.1445   56.2876 C   0  0  0  0  0  0  0  0  0  0  0  0
   33.6518   35.6889   55.3490 Cl  0  0  0  0  0  0  0  0  0  0  0  0
   33.1463   37.0820   57.6133 C   0  0  0  0  0  0  0  0  0  0  0  0
   30.8458   35.6395   63.0043 H   0  0  0  0  0  0  0  0  0  0  0  0
   30.3572   35.2794   61.3311 H   0  0  0  0  0  0  0  0  0  0  0  0
   32.0602   35.1042   61.8182 H   0  0  0  0  0  0  0  0  0  0  0  0
   30.4906   38.9360   63.5910 H   0  0  0  0  0  0  0  0  0  0  0  0
   30.0887   38.9525   66.0193 H   0  0  0  0  0  0  0  0  0  0  0  0
   31.6042   37.7334   67.5277 H   0  0  0  0  0  0  0  0  0  0  0  0
   33.5200   36.4891   66.6114 H   0  0  0  0  0  0  0  0  0  0  0  0
   33.9235   36.4601   64.1835 H   0  0  0  0  0  0  0  0  0  0  0  0
   32.9877   38.8464   60.3369 H   0  0  0  0  0  0  0  0  0  0  0  0
   33.2720   40.3788   58.3613 H   0  0  0  0  0  0  0  0  0  0  0  0
   33.9491   40.4846   55.9978 H   0  0  0  0  0  0  0  0  0  0  0  0
   32.9188   36.1280   58.0657 H   0  0  0  0  0  0  0  0  0  0  0  0
  1  2  1  0  0  0  0
  1 22  1  0  0  0  0
  1 23  1  0  0  0  0
  1 24  1  0  0  0  0
  2  3  1  1  0  0  0
  2  4  1  0  0  0  0
  2 11  1  0  0  0  0
  4  5  1  0  0  0  0
  5 10  2  0  0  0  0
  5  6  1  0  0  0  0
  6  7  2  0  0  0  0
  6 25  1  0  0  0  0
  7  8  1  0  0  0  0
  7 26  1  0  0  0  0
  8  9  2  0  0  0  0
  8 27  1  0  0  0  0
  9 10  1  0  0  0  0
  9 28  1  0  0  0  0
 10 29  1  0  0  0  0
 11 12  2  0  0  0  0
 11 13  1  0  0  0  0
 13 14  1  0  0  0  0
 13 30  1  0  0  0  0
 14 21  2  0  0  0  0
 14 15  1  0  0  0  0
 15 16  2  0  0  0  0
 15 31  1  0  0  0  0
 16 17  1  0  0  0  0
 16 32  1  0  0  0  0
 17 18  1  0  0  0  0
 17 19  2  0  0  0  0
 19 20  1  0  0  0  0
 19 21  1  0  0  0  0
 21 33  1  0  0  0  0
M  END
$$$$
