ZINC000000029599      none
 OpenBabel11202420163D

 38 39  0  0  0  0  0  0  0  0999 V2000
   31.3576   35.7798   67.9256 C   0  0  0  0  0  0  0  0  0  0  0  0
   30.9201   36.2594   66.5655 C   0  0  0  0  0  0  0  0  0  0  0  0
   30.7897   35.3595   65.5244 C   0  0  0  0  0  0  0  0  0  0  0  0
   30.3875   35.7993   64.2770 C   0  0  0  0  0  0  0  0  0  0  0  0
   30.2455   34.8183   63.1418 C   0  0  0  0  0  0  0  0  0  0  0  0
   30.1151   37.1388   64.0711 C   0  0  0  0  0  0  0  0  0  0  0  0
   29.6024   37.6994   62.4813 S   0  0  0  0  0  0  0  0  0  0  0  0
   28.3989   37.0063   62.1804 O   0  0  0  0  0  0  0  0  0  0  0  0
   29.6975   39.1170   62.5056 O   0  0  0  0  0  0  0  0  0  0  0  0
   30.7304   37.1736   61.3887 N   0  0  0  0  0  0  0  0  0  0  0  0
   31.8886   38.0124   61.0706 C   0  0  0  0  0  0  0  0  0  0  0  0
   32.3254   37.7486   59.6527 C   0  0  0  0  0  0  0  0  0  0  0  0
   32.6303   38.7964   58.7974 C   0  0  0  0  0  0  0  0  0  0  0  0
   33.0316   38.5159   57.5050 C   0  0  0  0  0  0  0  0  0  0  0  0
   33.1165   37.2703   57.0804 N   0  0  0  0  0  0  0  0  0  0  0  0
   32.8299   36.2494   57.8644 C   0  0  0  0  0  0  0  0  0  0  0  0
   32.4265   36.4526   59.1705 C   0  0  0  0  0  0  0  0  0  0  0  0
   30.2505   38.0395   65.1110 C   0  0  0  0  0  0  0  0  0  0  0  0
   29.9594   39.5007   64.8849 C   0  0  0  0  0  0  0  0  0  0  0  0
   30.6485   37.5990   66.3595 C   0  0  0  0  0  0  0  0  0  0  0  0
   32.4446   35.8229   67.9936 H   0  0  0  0  0  0  0  0  0  0  0  0
   30.9199   36.4174   68.6938 H   0  0  0  0  0  0  0  0  0  0  0  0
   31.0246   34.7525   68.0731 H   0  0  0  0  0  0  0  0  0  0  0  0
   31.0019   34.3129   65.6854 H   0  0  0  0  0  0  0  0  0  0  0  0
   31.1441   34.8434   62.5254 H   0  0  0  0  0  0  0  0  0  0  0  0
   30.1088   33.8146   63.5441 H   0  0  0  0  0  0  0  0  0  0  0  0
   29.3809   35.0875   62.5351 H   0  0  0  0  0  0  0  0  0  0  0  0
   30.6242   36.3104   60.9594 H   0  0  0  0  0  0  0  0  0  0  0  0
   31.6171   39.0627   61.1778 H   0  0  0  0  0  0  0  0  0  0  0  0
   32.7059   37.7769   61.7524 H   0  0  0  0  0  0  0  0  0  0  0  0
   32.5584   39.8188   59.1379 H   0  0  0  0  0  0  0  0  0  0  0  0
   33.2741   39.3263   56.8336 H   0  0  0  0  0  0  0  0  0  0  0  0
   32.9111   35.2429   57.4813 H   0  0  0  0  0  0  0  0  0  0  0  0
   32.1925   35.6124   59.8076 H   0  0  0  0  0  0  0  0  0  0  0  0
   28.8859   39.6734   64.9615 H   0  0  0  0  0  0  0  0  0  0  0  0
   30.4777   40.0951   65.6375 H   0  0  0  0  0  0  0  0  0  0  0  0
   30.3041   39.7906   63.8924 H   0  0  0  0  0  0  0  0  0  0  0  0
   30.7499   38.3020   67.1730 H   0  0  0  0  0  0  0  0  0  0  0  0
  1  2  1  0  0  0  0
  1 21  1  0  0  0  0
  1 22  1  0  0  0  0
  1 23  1  0  0  0  0
  2 20  2  0  0  0  0
  2  3  1  0  0  0  0
  3  4  2  0  0  0  0
  3 24  1  0  0  0  0
  4  5  1  0  0  0  0
  4  6  1  0  0  0  0
  5 25  1  0  0  0  0
  5 26  1  0  0  0  0
  5 27  1  0  0  0  0
  6  7  1  0  0  0  0
  6 18  2  0  0  0  0
  7  8  2  0  0  0  0
  7  9  2  0  0  0  0
  7 10  1  0  0  0  0
 10 11  1  0  0  0  0
 10 28  1  0  0  0  0
 11 12  1  0  0  0  0
 11 29  1  0  0  0  0
 11 30  1  0  0  0  0
 12 17  2  0  0  0  0
 12 13  1  0  0  0  0
 13 14  2  0  0  0  0
 13 31  1  0  0  0  0
 14 15  1  0  0  0  0
 14 32  1  0  0  0  0
 15 16  2  0  0  0  0
 16 17  1  0  0  0  0
 16 33  1  0  0  0  0
 17 34  1  0  0  0  0
 18 19  1  0  0  0  0
 18 20  1  0  0  0  0
 19 35  1  0  0  0  0
 19 36  1  0  0  0  0
 19 37  1  0  0  0  0
 20 38  1  0  0  0  0
M  END
$$$$
