ZINC000000044536      none
 OpenBabel11202420153D

 48 49  0  0  1  0  0  0  0  0999 V2000
   29.6178   40.4337   66.5182 C   0  0  0  0  0  0  0  0  0  0  0  0
   30.2694   39.7367   65.3221 C   0  0  0  0  0  0  0  0  0  0  0  0
   29.5189   38.5683   64.9849 O   0  0  0  0  0  0  0  0  0  0  0  0
   30.2047   37.5322   64.4345 C   0  0  0  0  0  0  0  0  0  0  0  0
   30.3517   37.4494   63.0573 C   0  0  0  0  0  0  0  0  0  0  0  0
   31.0443   36.3922   62.5002 C   0  0  0  0  0  0  0  0  0  0  0  0
   31.5959   35.4197   63.3140 C   0  0  0  0  0  0  0  0  0  0  0  0
   31.4554   35.5027   64.6868 C   0  0  0  0  0  0  0  0  0  0  0  0
   30.7634   36.5582   65.2490 C   0  0  0  0  0  0  0  0  0  0  0  0
   30.6106   36.6480   66.7456 C   0  0  2  0  0  0  0  0  0  0  0  0
   30.5419   37.6940   67.0441 H   0  0  0  0  0  0  0  0  0  0  0  0
   31.7695   36.0281   67.3950 N   0  0  0  0  0  0  0  0  0  0  0  0
   31.6630   35.5414   68.6439 C   0  0  0  0  0  0  0  0  0  0  0  0
   33.0570   34.9295   69.4272 S   0  0  0  0  0  0  0  0  0  0  0  0
   30.4858   35.5256   69.2891 N   0  0  0  0  0  0  0  0  0  0  0  0
   29.3675   35.7012   68.6686 C   0  0  0  0  0  0  0  0  0  0  0  0
   28.0755   35.6998   69.4445 C   0  0  0  0  0  0  0  0  0  0  0  0
   29.3410   35.9083   67.1759 C   0  0  2  0  0  0  0  0  0  0  0  0
   29.2786   34.5713   66.4835 C   0  0  0  0  0  0  0  0  0  0  0  0
   28.7303   34.4712   65.4115 O   0  0  0  0  0  0  0  0  0  0  0  0
   29.8274   33.4905   67.0601 O   0  0  0  0  0  0  0  0  0  0  0  0
   29.2141   32.2064   66.7715 C   0  0  0  0  0  0  0  0  0  0  0  0
   29.4037   31.2705   67.9670 C   0  0  0  0  0  0  0  0  0  0  0  0
   30.8982   31.0744   68.2293 C   0  0  0  0  0  0  0  0  0  0  0  0
   28.7450   31.8839   69.2043 C   0  0  0  0  0  0  0  0  0  0  0  0
   29.6015   39.7540   67.3701 H   0  0  0  0  0  0  0  0  0  0  0  0
   30.1902   41.3250   66.7753 H   0  0  0  0  0  0  0  0  0  0  0  0
   28.5975   40.7187   66.2611 H   0  0  0  0  0  0  0  0  0  0  0  0
   31.2895   39.4517   65.5791 H   0  0  0  0  0  0  0  0  0  0  0  0
   30.2856   40.4165   64.4701 H   0  0  0  0  0  0  0  0  0  0  0  0
   29.9215   38.2088   62.4212 H   0  0  0  0  0  0  0  0  0  0  0  0
   31.1556   36.3252   61.4280 H   0  0  0  0  0  0  0  0  0  0  0  0
   32.1378   34.5942   62.8765 H   0  0  0  0  0  0  0  0  0  0  0  0
   31.8871   34.7420   65.3203 H   0  0  0  0  0  0  0  0  0  0  0  0
   32.6149   35.9693   66.9230 H   0  0  0  0  0  0  0  0  0  0  0  0
   27.6817   34.6846   69.4922 H   0  0  0  0  0  0  0  0  0  0  0  0
   28.2581   36.0667   70.4546 H   0  0  0  0  0  0  0  0  0  0  0  0
   27.3527   36.3470   68.9478 H   0  0  0  0  0  0  0  0  0  0  0  0
   28.4657   36.4990   66.9060 H   0  0  0  0  0  0  0  0  0  0  0  0
   28.1493   32.3461   66.5848 H   0  0  0  0  0  0  0  0  0  0  0  0
   29.6834   31.7696   65.8901 H   0  0  0  0  0  0  0  0  0  0  0  0
   28.9433   30.3066   67.7503 H   0  0  0  0  0  0  0  0  0  0  0  0
   31.3586   32.0383   68.4460 H   0  0  0  0  0  0  0  0  0  0  0  0
   31.0333   30.4077   69.0810 H   0  0  0  0  0  0  0  0  0  0  0  0
   31.3676   30.6375   67.3478 H   0  0  0  0  0  0  0  0  0  0  0  0
   27.6801   32.0233   69.0174 H   0  0  0  0  0  0  0  0  0  0  0  0
   28.8798   31.2170   70.0559 H   0  0  0  0  0  0  0  0  0  0  0  0
   29.2052   32.8476   69.4208 H   0  0  0  0  0  0  0  0  0  0  0  0
  1  2  1  0  0  0  0
  1 26  1  0  0  0  0
  1 27  1  0  0  0  0
  1 28  1  0  0  0  0
  2  3  1  0  0  0  0
  2 29  1  0  0  0  0
  2 30  1  0  0  0  0
  3  4  1  0  0  0  0
  4  9  2  0  0  0  0
  4  5  1  0  0  0  0
  5  6  2  0  0  0  0
  5 31  1  0  0  0  0
  6  7  1  0  0  0  0
  6 32  1  0  0  0  0
  7  8  2  0  0  0  0
  7 33  1  0  0  0  0
  8  9  1  0  0  0  0
  8 34  1  0  0  0  0
  9 10  1  0  0  0  0
 10 11  1  1  0  0  0
 10 18  1  0  0  0  0
 10 12  1  0  0  0  0
 12 13  1  0  0  0  0
 12 35  1  0  0  0  0
 13 14  2  0  0  0  0
 13 15  1  0  0  0  0
 15 16  2  0  0  0  0
 16 17  1  0  0  0  0
 16 18  1  0  0  0  0
 17 36  1  0  0  0  0
 17 37  1  0  0  0  0
 17 38  1  0  0  0  0
 18 19  1  0  0  0  0
 18 39  1  6  0  0  0
 19 20  2  0  0  0  0
 19 21  1  0  0  0  0
 21 22  1  0  0  0  0
 22 23  1  0  0  0  0
 22 40  1  0  0  0  0
 22 41  1  0  0  0  0
 23 24  1  0  0  0  0
 23 25  1  0  0  0  0
 23 42  1  0  0  0  0
 24 43  1  0  0  0  0
 24 44  1  0  0  0  0
 24 45  1  0  0  0  0
 25 46  1  0  0  0  0
 25 47  1  0  0  0  0
 25 48  1  0  0  0  0
M  END
$$$$
