ZINC000000034190      none
 OpenBabel11202420153D

 32 34  0  0  0  0  0  0  0  0999 V2000
   29.7810   36.1117   61.5665 O   0  0  0  0  0  0  0  0  0  0  0  0
   30.6737   35.3958   60.7240 S   0  0  0  0  0  0  0  0  0  0  0  0
   30.2478   34.3844   59.8212 O   0  0  0  0  0  0  0  0  0  0  0  0
   31.7938   34.6919   61.7201 N   0  0  0  0  0  0  0  0  0  0  0  0
   32.0392   35.2290   62.9803 C   0  0  0  0  0  0  0  0  0  0  0  0
   33.0225   36.2009   63.1646 C   0  0  0  0  0  0  0  0  0  0  0  0
   33.2308   36.7118   64.4285 C   0  0  0  0  0  0  0  0  0  0  0  0
   32.5217   36.2846   65.4564 N   0  0  0  0  0  0  0  0  0  0  0  0
   31.5865   35.3626   65.3240 C   0  0  0  0  0  0  0  0  0  0  0  0
   31.3125   34.8054   64.0927 C   0  0  0  0  0  0  0  0  0  0  0  0
   31.5200   36.6014   59.7572 C   0  0  0  0  0  0  0  0  0  0  0  0
   31.6236   37.9093   60.2278 C   0  0  0  0  0  0  0  0  0  0  0  0
   32.2715   38.8643   59.5064 C   0  0  0  0  0  0  0  0  0  0  0  0
   32.8449   38.5304   58.2675 C   0  0  0  0  0  0  0  0  0  0  0  0
   33.5211   39.4894   57.4942 C   0  0  0  0  0  0  0  0  0  0  0  0
   34.0643   39.1296   56.2993 C   0  0  0  0  0  0  0  0  0  0  0  0
   33.9613   37.8216   55.8290 C   0  0  0  0  0  0  0  0  0  0  0  0
   33.3135   36.8666   56.5504 C   0  0  0  0  0  0  0  0  0  0  0  0
   32.7394   37.2006   57.7889 C   0  0  0  0  0  0  0  0  0  0  0  0
   32.0632   36.2416   58.5623 C   0  0  0  0  0  0  0  0  0  0  0  0
   32.2786   33.9052   61.4254 H   0  0  0  0  0  0  0  0  0  0  0  0
   33.6097   36.5513   62.3286 H   0  0  0  0  0  0  0  0  0  0  0  0
   33.9868   37.4681   64.5797 H   0  0  0  0  0  0  0  0  0  0  0  0
   31.0289   35.0404   66.1910 H   0  0  0  0  0  0  0  0  0  0  0  0
   30.5456   34.0517   63.9913 H   0  0  0  0  0  0  0  0  0  0  0  0
   31.1836   38.1686   61.1794 H   0  0  0  0  0  0  0  0  0  0  0  0
   32.3438   39.8736   59.8836 H   0  0  0  0  0  0  0  0  0  0  0  0
   33.6090   40.5066   57.8461 H   0  0  0  0  0  0  0  0  0  0  0  0
   34.5835   39.8685   55.7070 H   0  0  0  0  0  0  0  0  0  0  0  0
   34.4016   37.5623   54.8776 H   0  0  0  0  0  0  0  0  0  0  0  0
   33.2449   35.8562   56.1751 H   0  0  0  0  0  0  0  0  0  0  0  0
   31.9754   35.2243   58.2105 H   0  0  0  0  0  0  0  0  0  0  0  0
  1  2  2  0  0  0  0
  2  3  2  0  0  0  0
  2  4  1  0  0  0  0
  2 11  1  0  0  0  0
  4  5  1  0  0  0  0
  4 21  1  0  0  0  0
  5 10  2  0  0  0  0
  5  6  1  0  0  0  0
  6  7  2  0  0  0  0
  6 22  1  0  0  0  0
  7  8  1  0  0  0  0
  7 23  1  0  0  0  0
  8  9  2  0  0  0  0
  9 10  1  0  0  0  0
  9 24  1  0  0  0  0
 10 25  1  0  0  0  0
 11 20  2  0  0  0  0
 11 12  1  0  0  0  0
 12 13  2  0  0  0  0
 12 26  1  0  0  0  0
 13 14  1  0  0  0  0
 13 27  1  0  0  0  0
 14 19  2  0  0  0  0
 14 15  1  0  0  0  0
 15 16  2  0  0  0  0
 15 28  1  0  0  0  0
 16 17  1  0  0  0  0
 16 29  1  0  0  0  0
 17 18  2  0  0  0  0
 17 30  1  0  0  0  0
 18 19  1  0  0  0  0
 18 31  1  0  0  0  0
 19 20  1  0  0  0  0
 20 32  1  0  0  0  0
M  END
$$$$
