ZINC000000040419      none
 OpenBabel11202420153D

 24 25  0  0  0  0  0  0  0  0999 V2000
   29.4852   35.9441   64.8245 C   0  0  0  0  0  0  0  0  0  0  0  0
   29.8663   36.9001   63.7819 N   0  0  0  0  0  4  0  0  0  0  0  0
   29.7921   38.1717   63.9854 C   0  0  0  0  0  0  0  0  0  0  0  0
   29.2446   38.9206   65.4834 S   0  0  0  0  0  0  0  0  0  0  0  0
   30.7270   39.8606   65.9249 C   0  0  0  0  0  0  0  0  0  0  0  0
   31.6259   39.0076   66.7824 C   0  0  0  0  0  0  0  0  0  0  0  0
   31.9162   39.3699   67.9097 O   0  0  0  0  0  0  0  0  0  0  0  0
   32.0627   37.9552   66.3488 O   0  0  0  0  0  1  0  0  0  0  0  0
   30.3152   39.0513   62.5560 S   0  0  0  0  0  0  0  0  0  0  0  0
   30.6221   37.5328   61.7166 C   0  0  0  0  0  0  0  0  0  0  0  0
   31.0918   37.2746   60.4315 C   0  0  0  0  0  0  0  0  0  0  0  0
   31.2497   35.9765   59.9992 C   0  0  0  0  0  0  0  0  0  0  0  0
   30.9397   34.9218   60.8450 C   0  0  0  0  0  0  0  0  0  0  0  0
   30.4757   35.1578   62.1144 C   0  0  0  0  0  0  0  0  0  0  0  0
   30.3062   36.4793   62.5794 C   0  0  0  0  0  0  0  0  0  0  0  0
   30.3559   35.7073   65.4361 H   0  0  0  0  0  0  0  0  0  0  0  0
   28.7085   36.3813   65.4520 H   0  0  0  0  0  0  0  0  0  0  0  0
   29.1078   35.0326   64.3612 H   0  0  0  0  0  0  0  0  0  0  0  0
   31.2576   40.1495   65.0176 H   0  0  0  0  0  0  0  0  0  0  0  0
   30.4389   40.7548   66.4776 H   0  0  0  0  0  0  0  0  0  0  0  0
   31.3329   38.0949   59.7715 H   0  0  0  0  0  0  0  0  0  0  0  0
   31.6150   35.7798   59.0020 H   0  0  0  0  0  0  0  0  0  0  0  0
   31.0649   33.9056   60.5013 H   0  0  0  0  0  0  0  0  0  0  0  0
   30.2389   34.3267   62.7622 H   0  0  0  0  0  0  0  0  0  0  0  0
  1  2  1  0  0  0  0
  1 16  1  0  0  0  0
  1 17  1  0  0  0  0
  1 18  1  0  0  0  0
  2 15  1  0  0  0  0
  2  3  2  0  0  0  0
  3  4  1  0  0  0  0
  3  9  1  0  0  0  0
  4  5  1  0  0  0  0
  5  6  1  0  0  0  0
  5 19  1  0  0  0  0
  5 20  1  0  0  0  0
  6  7  2  0  0  0  0
  6  8  1  0  0  0  0
  9 10  1  0  0  0  0
 10 15  2  0  0  0  0
 10 11  1  0  0  0  0
 11 12  2  0  0  0  0
 11 21  1  0  0  0  0
 12 13  1  0  0  0  0
 12 22  1  0  0  0  0
 13 14  2  0  0  0  0
 13 23  1  0  0  0  0
 14 15  1  0  0  0  0
 14 24  1  0  0  0  0
M  END
$$$$
