ZINC000000046226      none
 OpenBabel11202420153D

 38 41  0  0  0  0  0  0  0  0999 V2000
   33.0683   37.4374   54.9891 C   0  0  0  0  0  0  0  0  0  0  0  0
   33.9240   37.9698   55.8253 N   0  0  0  0  0  0  0  0  0  0  0  0
   33.5370   38.2706   57.0966 C   0  0  0  0  0  0  0  0  0  0  0  0
   33.6047   39.5769   57.5697 C   0  0  0  0  0  0  0  0  0  0  0  0
   33.2058   39.8804   58.8628 C   0  0  0  0  0  0  0  0  0  0  0  0
   32.7460   38.9212   59.7162 C   0  0  0  0  0  0  0  0  0  0  0  0
   32.6568   37.5861   59.3076 C   0  0  0  0  0  0  0  0  0  0  0  0
   32.1684   36.5414   60.2069 C   0  0  0  0  0  0  0  0  0  0  0  0
   31.7830   36.8420   61.4787 N   0  0  0  0  0  0  0  0  0  0  0  0
   30.8060   37.6896   61.6837 C   0  0  0  0  0  0  0  0  0  0  0  0
   30.4781   38.0866   63.0035 C   0  0  0  0  0  0  0  0  0  0  0  0
   31.1098   37.6607   64.1417 C   0  0  0  0  0  0  0  0  0  0  0  0
   30.5858   38.2077   65.2895 C   0  0  0  0  0  0  0  0  0  0  0  0
   29.5635   39.0499   65.1020 C   0  0  0  0  0  0  0  0  0  0  0  0
   29.1997   39.2109   63.4429 S   0  0  0  0  0  0  0  0  0  0  0  0
   32.1060   35.2343   59.7357 C   0  0  0  0  0  0  0  0  0  0  0  0
   32.4999   34.9316   58.4408 C   0  0  0  0  0  0  0  0  0  0  0  0
   32.9586   35.8910   57.5868 C   0  0  0  0  0  0  0  0  0  0  0  0
   33.0473   37.2262   57.9953 C   0  0  0  0  0  0  0  0  0  0  0  0
   33.4978   37.0228   53.7043 C   0  0  0  0  0  0  0  0  0  0  0  0
   32.9540   35.9975   52.9770 C   0  0  0  0  0  0  0  0  0  0  0  0
   33.5662   35.8124   51.7595 C   0  0  0  0  0  0  0  0  0  0  0  0
   34.5735   36.6527   51.4966 C   0  0  0  0  0  0  0  0  0  0  0  0
   34.8092   37.7470   52.7840 S   0  0  0  0  0  0  0  0  0  0  0  0
   32.0352   37.3141   55.2790 H   0  0  0  0  0  0  0  0  0  0  0  0
   33.9677   40.3622   56.9232 H   0  0  0  0  0  0  0  0  0  0  0  0
   33.2646   40.9032   59.2045 H   0  0  0  0  0  0  0  0  0  0  0  0
   32.4479   39.1949   60.7176 H   0  0  0  0  0  0  0  0  0  0  0  0
   30.2502   38.0858   60.8467 H   0  0  0  0  0  0  0  0  0  0  0  0
   31.9366   36.9659   64.1380 H   0  0  0  0  0  0  0  0  0  0  0  0
   30.9712   37.9739   66.2709 H   0  0  0  0  0  0  0  0  0  0  0  0
   29.0406   39.5632   65.8955 H   0  0  0  0  0  0  0  0  0  0  0  0
   31.7482   34.4481   60.3839 H   0  0  0  0  0  0  0  0  0  0  0  0
   32.4420   33.9087   58.0995 H   0  0  0  0  0  0  0  0  0  0  0  0
   33.2567   35.6172   56.5856 H   0  0  0  0  0  0  0  0  0  0  0  0
   32.1275   35.3954   53.3243 H   0  0  0  0  0  0  0  0  0  0  0  0
   33.2565   35.0444   51.0662 H   0  0  0  0  0  0  0  0  0  0  0  0
   35.1574   36.6423   50.5880 H   0  0  0  0  0  0  0  0  0  0  0  0
  1  2  2  0  0  0  0
  1 20  1  0  0  0  0
  1 25  1  0  0  0  0
  2  3  1  0  0  0  0
  3 19  2  0  0  0  0
  3  4  1  0  0  0  0
  4  5  2  0  0  0  0
  4 26  1  0  0  0  0
  5  6  1  0  0  0  0
  5 27  1  0  0  0  0
  6  7  2  0  0  0  0
  6 28  1  0  0  0  0
  7 19  1  0  0  0  0
  7  8  1  0  0  0  0
  8  9  1  0  0  0  0
  8 16  2  0  0  0  0
  9 10  2  0  0  0  0
 10 11  1  0  0  0  0
 10 29  1  0  0  0  0
 11 15  1  0  0  0  0
 11 12  2  0  0  0  0
 12 13  1  0  0  0  0
 12 30  1  0  0  0  0
 13 14  2  0  0  0  0
 13 31  1  0  0  0  0
 14 15  1  0  0  0  0
 14 32  1  0  0  0  0
 16 17  1  0  0  0  0
 16 33  1  0  0  0  0
 17 18  2  0  0  0  0
 17 34  1  0  0  0  0
 18 19  1  0  0  0  0
 18 35  1  0  0  0  0
 20 24  1  0  0  0  0
 20 21  2  0  0  0  0
 21 22  1  0  0  0  0
 21 36  1  0  0  0  0
 22 23  2  0  0  0  0
 22 37  1  0  0  0  0
 23 24  1  0  0  0  0
 23 38  1  0  0  0  0
M  END
$$$$
