ZINC000000052659      none
 OpenBabel11202420153D

 37 39  0  0  0  0  0  0  0  0999 V2000
   35.1780   38.8347   53.7041 C   0  0  0  0  0  0  0  0  0  0  0  0
   35.1042   37.3396   53.8770 C   0  0  0  0  0  0  0  0  0  0  0  0
   35.9857   36.6342   53.4357 O   0  0  0  0  0  0  0  0  0  0  0  0
   34.0635   36.7894   54.5194 O   0  0  0  0  0  0  0  0  0  0  0  0
   33.8866   37.1269   55.6762 N   0  0  0  0  0  0  0  0  0  0  0  0
   33.3441   36.2973   56.5210 C   0  0  0  0  0  0  0  0  0  0  0  0
   32.9827   36.7563   57.8799 C   0  0  0  0  0  0  0  0  0  0  0  0
   33.2171   38.0794   58.2564 C   0  0  0  0  0  0  0  0  0  0  0  0
   32.8798   38.5060   59.5234 C   0  0  0  0  0  0  0  0  0  0  0  0
   32.3073   37.6231   60.4279 C   0  0  0  0  0  0  0  0  0  0  0  0
   32.0707   36.2996   60.0574 C   0  0  0  0  0  0  0  0  0  0  0  0
   32.4014   35.8687   58.7863 C   0  0  0  0  0  0  0  0  0  0  0  0
   31.5072   35.6451   61.1149 O   0  0  0  0  0  0  0  0  0  0  0  0
   31.7775   36.4690   62.2644 C   0  0  0  0  0  0  0  0  0  0  0  0
   31.8915   37.7952   61.7161 O   0  0  0  0  0  0  0  0  0  0  0  0
   33.1008   34.9885   56.1456 N   0  0  0  0  0  0  0  0  0  0  0  0
   32.2098   34.6775   55.0166 C   0  0  0  0  0  0  0  0  0  0  0  0
   32.9463   33.7090   54.0774 C   0  0  0  0  0  0  0  0  0  0  0  0
   33.4239   32.5942   54.8344 O   0  0  0  0  0  0  0  0  0  0  0  0
   34.3795   32.9364   55.8411 C   0  0  0  0  0  0  0  0  0  0  0  0
   33.7207   33.8657   56.8670 C   0  0  0  0  0  0  0  0  0  0  0  0
   35.7038   39.2732   54.5523 H   0  0  0  0  0  0  0  0  0  0  0  0
   35.7141   39.0681   52.7841 H   0  0  0  0  0  0  0  0  0  0  0  0
   34.1693   39.2446   53.6507 H   0  0  0  0  0  0  0  0  0  0  0  0
   33.6631   38.7694   57.5553 H   0  0  0  0  0  0  0  0  0  0  0  0
   33.0619   39.5304   59.8128 H   0  0  0  0  0  0  0  0  0  0  0  0
   32.2146   34.8453   58.4966 H   0  0  0  0  0  0  0  0  0  0  0  0
   32.7117   36.1692   62.7393 H   0  0  0  0  0  0  0  0  0  0  0  0
   30.9522   36.4179   62.9747 H   0  0  0  0  0  0  0  0  0  0  0  0
   31.2968   34.2112   55.3872 H   0  0  0  0  0  0  0  0  0  0  0  0
   31.9628   35.5940   54.4806 H   0  0  0  0  0  0  0  0  0  0  0  0
   33.7884   34.2199   53.6109 H   0  0  0  0  0  0  0  0  0  0  0  0
   32.2605   33.3583   53.3061 H   0  0  0  0  0  0  0  0  0  0  0  0
   35.2269   33.4447   55.3808 H   0  0  0  0  0  0  0  0  0  0  0  0
   34.7249   32.0307   56.3393 H   0  0  0  0  0  0  0  0  0  0  0  0
   34.4750   34.2443   57.5569 H   0  0  0  0  0  0  0  0  0  0  0  0
   32.9575   33.3194   57.4212 H   0  0  0  0  0  0  0  0  0  0  0  0
  1  2  1  0  0  0  0
  1 22  1  0  0  0  0
  1 23  1  0  0  0  0
  1 24  1  0  0  0  0
  2  3  2  0  0  0  0
  2  4  1  0  0  0  0
  4  5  1  0  0  0  0
  5  6  2  0  0  0  0
  6  7  1  0  0  0  0
  6 16  1  0  0  0  0
  7 12  2  0  0  0  0
  7  8  1  0  0  0  0
  8  9  2  0  0  0  0
  8 25  1  0  0  0  0
  9 10  1  0  0  0  0
  9 26  1  0  0  0  0
 10 15  1  0  0  0  0
 10 11  2  0  0  0  0
 11 12  1  0  0  0  0
 11 13  1  0  0  0  0
 12 27  1  0  0  0  0
 13 14  1  0  0  0  0
 14 15  1  0  0  0  0
 14 28  1  0  0  0  0
 14 29  1  0  0  0  0
 16 21  1  0  0  0  0
 16 17  1  0  0  0  0
 17 18  1  0  0  0  0
 17 30  1  0  0  0  0
 17 31  1  0  0  0  0
 18 19  1  0  0  0  0
 18 32  1  0  0  0  0
 18 33  1  0  0  0  0
 19 20  1  0  0  0  0
 20 21  1  0  0  0  0
 20 34  1  0  0  0  0
 20 35  1  0  0  0  0
 21 36  1  0  0  0  0
 21 37  1  0  0  0  0
M  END
$$$$
