ZINC000000009809      none
 OpenBabel11202420153D

 30 33  0  0  0  0  0  0  0  0999 V2000
   34.9048   32.8788   53.5349 O   0  0  0  0  0  0  0  0  0  0  0  0
   34.3600   33.9248   53.8153 C   0  0  0  0  0  0  0  0  0  0  0  0
   34.9689   35.0377   54.6438 C   0  0  0  0  0  0  0  0  0  0  0  0
   33.8621   36.1007   54.6802 C   0  0  0  0  0  0  0  0  0  0  0  0
   32.7393   35.4905   53.8771 C   0  0  0  0  0  0  0  0  0  0  0  0
   31.6659   36.0099   53.6594 O   0  0  0  0  0  0  0  0  0  0  0  0
   33.1230   34.2808   53.4424 N   0  0  0  0  0  0  0  0  0  0  0  0
   34.3332   37.3964   54.0847 C   0  0  0  0  0  0  0  0  0  0  0  0
   34.8245   37.7297   52.8403 C   0  0  0  0  0  0  0  0  0  0  0  0
   35.1898   39.0375   52.5648 C   0  0  0  0  0  0  0  0  0  0  0  0
   35.6706   39.3610   51.3444 F   0  0  0  0  0  0  0  0  0  0  0  0
   35.0620   40.0140   53.5397 C   0  0  0  0  0  0  0  0  0  0  0  0
   34.5709   39.6890   54.7862 C   0  0  0  0  0  0  0  0  0  0  0  0
   34.1998   38.3737   55.0704 C   0  0  0  0  0  0  0  0  0  0  0  0
   33.6498   37.7587   56.3046 C   0  0  0  0  0  0  0  0  0  0  0  0
   33.3406   38.3131   57.5479 C   0  0  0  0  0  0  0  0  0  0  0  0
   32.8298   37.5170   58.5510 C   0  0  0  0  0  0  0  0  0  0  0  0
   32.6216   36.1651   58.3298 C   0  0  0  0  0  0  0  0  0  0  0  0
   32.1194   35.3895   59.3154 F   0  0  0  0  0  0  0  0  0  0  0  0
   32.9281   35.6078   57.0989 C   0  0  0  0  0  0  0  0  0  0  0  0
   33.4394   36.3969   56.0905 C   0  0  0  0  0  0  0  0  0  0  0  0
   35.1984   34.6868   55.6499 H   0  0  0  0  0  0  0  0  0  0  0  0
   35.8638   35.4307   54.1614 H   0  0  0  0  0  0  0  0  0  0  0  0
   32.5524   33.7109   52.9034 H   0  0  0  0  0  0  0  0  0  0  0  0
   34.9246   36.9702   52.0790 H   0  0  0  0  0  0  0  0  0  0  0  0
   35.3482   41.0324   53.3224 H   0  0  0  0  0  0  0  0  0  0  0  0
   34.4730   40.4528   55.5435 H   0  0  0  0  0  0  0  0  0  0  0  0
   33.5013   39.3664   57.7240 H   0  0  0  0  0  0  0  0  0  0  0  0
   32.5911   37.9485   59.5119 H   0  0  0  0  0  0  0  0  0  0  0  0
   32.7654   34.5538   56.9287 H   0  0  0  0  0  0  0  0  0  0  0  0
  1  2  2  0  0  0  0
  2  7  1  0  0  0  0
  2  3  1  0  0  0  0
  3  4  1  0  0  0  0
  3 22  1  0  0  0  0
  3 23  1  0  0  0  0
  4 21  1  0  0  0  0
  4  5  1  0  0  0  0
  4  8  1  0  0  0  0
  5  6  2  0  0  0  0
  5  7  1  0  0  0  0
  7 24  1  0  0  0  0
  8 14  2  0  0  0  0
  8  9  1  0  0  0  0
  9 10  2  0  0  0  0
  9 25  1  0  0  0  0
 10 11  1  0  0  0  0
 10 12  1  0  0  0  0
 12 13  2  0  0  0  0
 12 26  1  0  0  0  0
 13 14  1  0  0  0  0
 13 27  1  0  0  0  0
 14 15  1  0  0  0  0
 15 21  2  0  0  0  0
 15 16  1  0  0  0  0
 16 17  2  0  0  0  0
 16 28  1  0  0  0  0
 17 18  1  0  0  0  0
 17 29  1  0  0  0  0
 18 19  1  0  0  0  0
 18 20  2  0  0  0  0
 20 21  1  0  0  0  0
 20 30  1  0  0  0  0
M  END
$$$$
