ZINC000000046136      none
 OpenBabel11202420153D

 36 38  0  0  0  0  0  0  0  0999 V2000
   33.0038   39.3993   58.7253 N   0  0  0  0  0  0  0  0  0  0  0  0
   32.8799   38.3064   58.4411 C   0  0  0  0  0  0  0  0  0  0  0  0
   32.7237   36.9287   58.0827 C   0  0  0  0  0  0  0  0  0  0  0  0
   32.2533   35.9784   58.9437 C   0  0  0  0  0  0  0  0  0  0  0  0
   31.8716   36.2222   60.2557 N   0  0  0  0  0  0  0  0  0  0  0  0
   31.4193   35.2120   61.0248 C   0  0  0  0  0  0  0  0  0  0  0  0
   31.3457   34.0871   60.5692 O   0  0  0  0  0  0  0  0  0  0  0  0
   31.0488   35.4488   62.2987 N   0  0  0  0  0  0  0  0  0  0  0  0
   30.5793   34.3995   63.0976 C   0  0  0  0  0  0  0  0  0  0  0  0
   29.6603   34.6518   64.1076 C   0  0  0  0  0  0  0  0  0  0  0  0
   29.1948   33.6141   64.8912 C   0  0  0  0  0  0  0  0  0  0  0  0
   29.6517   32.3254   64.6774 C   0  0  0  0  0  0  0  0  0  0  0  0
   29.0702   31.0244   65.6689 Cl  0  0  0  0  0  0  0  0  0  0  0  0
   30.5715   32.0722   63.6751 C   0  0  0  0  0  0  0  0  0  0  0  0
   31.0360   33.1055   62.8852 C   0  0  0  0  0  0  0  0  0  0  0  0
   32.1919   34.4555   58.1853 S   0  0  0  0  0  0  0  0  0  0  0  0
   32.8184   35.0902   56.6727 C   0  0  0  0  0  0  0  0  0  0  0  0
   33.0537   36.4043   56.7705 C   0  0  0  0  0  0  0  0  0  0  0  0
   33.6005   37.2462   55.6286 C   0  0  0  0  0  0  0  0  0  0  0  0
   34.2142   36.3151   54.5805 C   0  0  0  0  0  0  0  0  0  0  0  0
   33.2045   35.2183   54.2291 C   0  0  0  0  0  0  0  0  0  0  0  0
   33.0630   34.2687   55.4215 C   0  0  0  0  0  0  0  0  0  0  0  0
   31.9304   37.1197   60.6191 H   0  0  0  0  0  0  0  0  0  0  0  0
   31.1076   36.3461   62.6622 H   0  0  0  0  0  0  0  0  0  0  0  0
   29.3066   35.6581   64.2775 H   0  0  0  0  0  0  0  0  0  0  0  0
   28.4773   33.8092   65.6744 H   0  0  0  0  0  0  0  0  0  0  0  0
   30.9267   31.0656   63.5105 H   0  0  0  0  0  0  0  0  0  0  0  0
   31.7541   32.9074   62.1033 H   0  0  0  0  0  0  0  0  0  0  0  0
   32.7911   37.8207   55.1780 H   0  0  0  0  0  0  0  0  0  0  0  0
   34.3635   37.9257   56.0084 H   0  0  0  0  0  0  0  0  0  0  0  0
   34.4585   36.8860   53.6846 H   0  0  0  0  0  0  0  0  0  0  0  0
   35.1200   35.8611   54.9823 H   0  0  0  0  0  0  0  0  0  0  0  0
   32.2380   35.6704   54.0064 H   0  0  0  0  0  0  0  0  0  0  0  0
   33.5573   34.6627   53.3602 H   0  0  0  0  0  0  0  0  0  0  0  0
   33.9790   33.6894   55.5379 H   0  0  0  0  0  0  0  0  0  0  0  0
   32.2214   33.5961   55.2557 H   0  0  0  0  0  0  0  0  0  0  0  0
  1  2  3  0  0  0  0
  2  3  1  0  0  0  0
  3 18  1  0  0  0  0
  3  4  2  0  0  0  0
  4  5  1  0  0  0  0
  4 16  1  0  0  0  0
  5  6  1  0  0  0  0
  5 23  1  0  0  0  0
  6  7  2  0  0  0  0
  6  8  1  0  0  0  0
  8  9  1  0  0  0  0
  8 24  1  0  0  0  0
  9 15  2  0  0  0  0
  9 10  1  0  0  0  0
 10 11  2  0  0  0  0
 10 25  1  0  0  0  0
 11 12  1  0  0  0  0
 11 26  1  0  0  0  0
 12 13  1  0  0  0  0
 12 14  2  0  0  0  0
 14 15  1  0  0  0  0
 14 27  1  0  0  0  0
 15 28  1  0  0  0  0
 16 17  1  0  0  0  0
 17 22  1  0  0  0  0
 17 18  2  0  0  0  0
 18 19  1  0  0  0  0
 19 20  1  0  0  0  0
 19 29  1  0  0  0  0
 19 30  1  0  0  0  0
 20 21  1  0  0  0  0
 20 31  1  0  0  0  0
 20 32  1  0  0  0  0
 21 22  1  0  0  0  0
 21 33  1  0  0  0  0
 21 34  1  0  0  0  0
 22 35  1  0  0  0  0
 22 36  1  0  0  0  0
M  END
$$$$
