ZINC000000010523      none
 OpenBabel11202420153D

 33 34  0  0  1  0  0  0  0  0999 V2000
   30.7326   39.2586   65.3311 C   0  0  0  0  0  0  0  0  0  0  0  0
   30.9436   38.0291   64.5629 N   0  0  0  0  0  0  0  0  0  0  0  0
   30.1206   37.7237   63.5403 C   0  0  0  0  0  0  0  0  0  0  0  0
   28.9137   38.7033   63.1654 S   0  0  0  0  0  0  0  0  0  0  0  0
   30.3415   36.4621   62.7463 C   0  0  2  0  0  0  0  0  0  0  0  0
   29.5778   35.3266   63.3773 C   0  0  0  0  0  0  0  0  0  0  0  0
   30.2451   34.2006   63.8354 C   0  0  0  0  0  0  0  0  0  0  0  0
   29.5022   33.1827   64.4131 C   0  0  0  0  0  0  0  0  0  0  0  0
   28.1296   33.3183   64.5027 C   0  0  0  0  0  0  0  0  0  0  0  0
   27.5279   34.4013   64.0518 N   0  0  0  0  0  0  0  0  0  0  0  0
   28.2031   35.3916   63.5015 C   0  0  0  0  0  0  0  0  0  0  0  0
   31.8366   36.1280   62.7162 C   0  0  0  0  0  0  0  0  0  0  0  0
   32.5862   37.2205   61.9515 C   0  0  0  0  0  0  0  0  0  0  0  0
   32.1207   37.2462   60.4947 C   0  0  0  0  0  0  0  0  0  0  0  0
   30.6362   37.6223   60.4412 C   0  0  0  0  0  0  0  0  0  0  0  0
   29.8657   36.6665   61.3249 C   0  0  0  0  0  0  0  0  0  0  0  0
   28.8959   36.0813   60.9063 O   0  0  0  0  0  0  0  0  0  0  0  0
   31.4904   39.3346   66.1108 H   0  0  0  0  0  0  0  0  0  0  0  0
   30.8074   40.1195   64.6666 H   0  0  0  0  0  0  0  0  0  0  0  0
   29.7428   39.2367   65.7871 H   0  0  0  0  0  0  0  0  0  0  0  0
   31.6758   37.4349   64.7904 H   0  0  0  0  0  0  0  0  0  0  0  0
   31.3187   34.1203   63.7478 H   0  0  0  0  0  0  0  0  0  0  0  0
   29.9893   32.2929   64.7840 H   0  0  0  0  0  0  0  0  0  0  0  0
   27.5430   32.5279   64.9477 H   0  0  0  0  0  0  0  0  0  0  0  0
   27.6755   36.2633   63.1434 H   0  0  0  0  0  0  0  0  0  0  0  0
   32.2171   36.0719   63.7360 H   0  0  0  0  0  0  0  0  0  0  0  0
   31.9850   35.1693   62.2192 H   0  0  0  0  0  0  0  0  0  0  0  0
   33.6566   37.0177   61.9864 H   0  0  0  0  0  0  0  0  0  0  0  0
   32.3865   38.1876   62.4128 H   0  0  0  0  0  0  0  0  0  0  0  0
   32.2624   36.2610   60.0503 H   0  0  0  0  0  0  0  0  0  0  0  0
   32.7024   37.9823   59.9400 H   0  0  0  0  0  0  0  0  0  0  0  0
   30.2755   37.5443   59.4156 H   0  0  0  0  0  0  0  0  0  0  0  0
   30.5009   38.6426   60.8001 H   0  0  0  0  0  0  0  0  0  0  0  0
  1  2  1  0  0  0  0
  1 18  1  0  0  0  0
  1 19  1  0  0  0  0
  1 20  1  0  0  0  0
  2  3  1  0  0  0  0
  2 21  1  0  0  0  0
  3  4  2  0  0  0  0
  5  3  1  1  0  0  0
  5 16  1  0  0  0  0
  5  6  1  0  0  0  0
  5 12  1  0  0  0  0
  6 11  2  0  0  0  0
  6  7  1  0  0  0  0
  7  8  2  0  0  0  0
  7 22  1  0  0  0  0
  8  9  1  0  0  0  0
  8 23  1  0  0  0  0
  9 10  2  0  0  0  0
  9 24  1  0  0  0  0
 10 11  1  0  0  0  0
 11 25  1  0  0  0  0
 12 13  1  0  0  0  0
 12 26  1  0  0  0  0
 12 27  1  0  0  0  0
 13 14  1  0  0  0  0
 13 28  1  0  0  0  0
 13 29  1  0  0  0  0
 14 15  1  0  0  0  0
 14 30  1  0  0  0  0
 14 31  1  0  0  0  0
 15 16  1  0  0  0  0
 15 32  1  0  0  0  0
 15 33  1  0  0  0  0
 16 17  2  0  0  0  0
M  END
$$$$
