ZINC000000026685      none
 OpenBabel11202420153D

 35 39  0  0  0  0  0  0  0  0999 V2000
   33.6886   40.0596   58.9103 C   0  0  0  0  0  0  0  0  0  0  0  0
   33.4655   38.8783   58.1379 O   0  0  0  0  0  0  0  0  0  0  0  0
   33.7972   38.9299   56.8240 C   0  0  0  0  0  0  0  0  0  0  0  0
   34.3306   40.0875   56.2653 C   0  0  0  0  0  0  0  0  0  0  0  0
   34.6563   40.1026   54.9202 C   0  0  0  0  0  0  0  0  0  0  0  0
   34.4738   39.0466   54.1574 N   0  0  0  0  0  0  0  0  0  0  0  0
   33.9689   37.9126   54.6344 C   0  0  0  0  0  0  0  0  0  0  0  0
   33.6130   37.8179   55.9889 C   0  0  0  0  0  0  0  0  0  0  0  0
   33.0515   36.5630   56.5271 C   0  0  0  0  0  0  0  0  0  0  0  0
   32.7150   36.4626   57.7942 N   0  0  0  0  0  0  0  0  0  0  0  0
   32.2014   35.3505   58.3358 C   0  0  0  0  0  0  0  0  0  0  0  0
   31.8662   35.3232   59.7015 C   0  0  0  0  0  0  0  0  0  0  0  0
   31.3442   34.1934   60.2553 C   0  0  0  0  0  0  0  0  0  0  0  0
   31.1330   33.0524   59.4894 C   0  0  0  0  0  0  0  0  0  0  0  0
   31.4496   33.0426   58.1499 C   0  0  0  0  0  0  0  0  0  0  0  0
   31.9850   34.1859   57.5575 C   0  0  0  0  0  0  0  0  0  0  0  0
   32.3361   34.2214   56.1371 C   0  0  0  0  0  0  0  0  0  0  0  0
   32.1730   33.1450   55.2653 C   0  0  0  0  0  0  0  0  0  0  0  0
   32.5444   33.3050   53.9414 C   0  0  0  0  0  0  0  0  0  0  0  0
   33.0426   34.4394   53.4888 N   0  0  0  0  0  0  0  0  0  0  0  0
   33.2218   35.4963   54.2671 C   0  0  0  0  0  0  0  0  0  0  0  0
   32.8730   35.4239   55.6266 C   0  0  0  0  0  0  0  0  0  0  0  0
   33.7889   36.7526   53.7341 C   0  0  0  0  0  0  0  0  0  0  0  0
   34.0969   36.8353   52.5611 O   0  0  0  0  0  0  0  0  0  0  0  0
   33.1068   40.8817   58.4935 H   0  0  0  0  0  0  0  0  0  0  0  0
   33.3815   39.8832   59.9412 H   0  0  0  0  0  0  0  0  0  0  0  0
   34.7480   40.3152   58.8855 H   0  0  0  0  0  0  0  0  0  0  0  0
   34.4881   40.9651   56.8747 H   0  0  0  0  0  0  0  0  0  0  0  0
   35.0698   41.0015   54.4873 H   0  0  0  0  0  0  0  0  0  0  0  0
   32.0228   36.1999   60.3124 H   0  0  0  0  0  0  0  0  0  0  0  0
   31.0908   34.1837   61.3052 H   0  0  0  0  0  0  0  0  0  0  0  0
   30.7176   32.1675   59.9486 H   0  0  0  0  0  0  0  0  0  0  0  0
   31.2837   32.1534   57.5600 H   0  0  0  0  0  0  0  0  0  0  0  0
   31.7656   32.2079   55.6152 H   0  0  0  0  0  0  0  0  0  0  0  0
   32.4221   32.4768   53.2590 H   0  0  0  0  0  0  0  0  0  0  0  0
  1  2  1  0  0  0  0
  1 25  1  0  0  0  0
  1 26  1  0  0  0  0
  1 27  1  0  0  0  0
  2  3  1  0  0  0  0
  3  8  2  0  0  0  0
  3  4  1  0  0  0  0
  4  5  2  0  0  0  0
  4 28  1  0  0  0  0
  5  6  1  0  0  0  0
  5 29  1  0  0  0  0
  6  7  2  0  0  0  0
  7 23  1  0  0  0  0
  7  8  1  0  0  0  0
  8  9  1  0  0  0  0
  9 22  2  0  0  0  0
  9 10  1  0  0  0  0
 10 11  2  0  0  0  0
 11 16  1  0  0  0  0
 11 12  1  0  0  0  0
 12 13  2  0  0  0  0
 12 30  1  0  0  0  0
 13 14  1  0  0  0  0
 13 31  1  0  0  0  0
 14 15  2  0  0  0  0
 14 32  1  0  0  0  0
 15 16  1  0  0  0  0
 15 33  1  0  0  0  0
 16 17  2  0  0  0  0
 17 22  1  0  0  0  0
 17 18  1  0  0  0  0
 18 19  2  0  0  0  0
 18 34  1  0  0  0  0
 19 20  1  0  0  0  0
 19 35  1  0  0  0  0
 20 21  2  0  0  0  0
 21 22  1  0  0  0  0
 21 23  1  0  0  0  0
 23 24  2  0  0  0  0
M  END
$$$$
