ZINC000000036277      none
 OpenBabel11202420153D

 31 34  0  0  1  0  0  0  0  0999 V2000
   32.8482   36.3390   64.0360 C   0  0  0  0  0  0  0  0  0  0  0  0
   31.3943   36.2486   63.5678 C   0  0  1  0  0  0  0  0  0  0  0  0
   30.5252   37.1780   64.4176 C   0  0  0  0  0  0  0  0  0  0  0  0
   30.1666   38.3300   63.4590 C   0  0  0  0  0  0  0  0  0  0  0  0
   30.7712   37.9587   62.1266 C   0  0  0  0  0  0  0  0  0  0  0  0
   30.7647   38.6691   61.1436 O   0  0  0  0  0  0  0  0  0  0  0  0
   31.3079   36.7403   62.1784 N   0  0  0  0  0  0  0  0  0  0  0  0
   31.7089   35.9144   61.1362 C   0  0  0  0  0  0  0  0  0  0  0  0
   31.6296   34.5411   61.3307 C   0  0  0  0  0  0  0  0  0  0  0  0
   32.0906   33.9168   60.2357 O   0  0  0  0  0  0  0  0  0  0  0  0
   32.4529   34.8036   59.2986 C   0  0  0  0  0  0  0  0  0  0  0  0
   32.9614   34.6287   58.0147 C   0  0  0  0  0  0  0  0  0  0  0  0
   33.2421   35.7710   57.2850 C   0  0  0  0  0  0  0  0  0  0  0  0
   33.0320   37.0417   57.7941 C   0  0  0  0  0  0  0  0  0  0  0  0
   32.5302   37.2466   59.0551 C   0  0  0  0  0  0  0  0  0  0  0  0
   32.2362   36.1103   59.8165 C   0  0  0  0  0  0  0  0  0  0  0  0
   31.0974   34.0126   62.5891 C   0  0  0  0  0  0  0  0  0  0  0  0
   30.7981   32.8371   62.6939 O   0  0  0  0  0  0  0  0  0  0  0  0
   30.9463   34.8624   63.6350 N   0  0  0  0  0  0  0  0  0  0  0  0
   32.9162   36.0154   65.0747 H   0  0  0  0  0  0  0  0  0  0  0  0
   33.4709   35.6964   63.4137 H   0  0  0  0  0  0  0  0  0  0  0  0
   33.1931   37.3697   63.9531 H   0  0  0  0  0  0  0  0  0  0  0  0
   31.0885   37.5531   65.2721 H   0  0  0  0  0  0  0  0  0  0  0  0
   29.6242   36.6619   64.7490 H   0  0  0  0  0  0  0  0  0  0  0  0
   30.5946   39.2656   63.8186 H   0  0  0  0  0  0  0  0  0  0  0  0
   29.0842   38.4209   63.3686 H   0  0  0  0  0  0  0  0  0  0  0  0
   33.1298   33.6436   57.6054 H   0  0  0  0  0  0  0  0  0  0  0  0
   33.6378   35.6679   56.2855 H   0  0  0  0  0  0  0  0  0  0  0  0
   33.2701   37.8977   57.1800 H   0  0  0  0  0  0  0  0  0  0  0  0
   32.3698   38.2417   59.4428 H   0  0  0  0  0  0  0  0  0  0  0  0
   30.5297   34.5398   64.4493 H   0  0  0  0  0  0  0  0  0  0  0  0
  1 20  1  0  0  0  0
  1 21  1  0  0  0  0
  1 22  1  0  0  0  0
  2  1  1  1  0  0  0
  2  7  1  0  0  0  0
  2 19  1  0  0  0  0
  2  3  1  0  0  0  0
  3  4  1  0  0  0  0
  3 23  1  0  0  0  0
  3 24  1  0  0  0  0
  4  5  1  0  0  0  0
  4 25  1  0  0  0  0
  4 26  1  0  0  0  0
  5  6  2  0  0  0  0
  5  7  1  0  0  0  0
  7  8  1  0  0  0  0
  8 16  1  0  0  0  0
  8  9  2  0  0  0  0
  9 10  1  0  0  0  0
  9 17  1  0  0  0  0
 10 11  1  0  0  0  0
 11 16  2  0  0  0  0
 11 12  1  0  0  0  0
 12 13  2  0  0  0  0
 12 27  1  0  0  0  0
 13 14  1  0  0  0  0
 13 28  1  0  0  0  0
 14 15  2  0  0  0  0
 14 29  1  0  0  0  0
 15 16  1  0  0  0  0
 15 30  1  0  0  0  0
 17 18  2  0  0  0  0
 17 19  1  0  0  0  0
 19 31  1  0  0  0  0
M  END
$$$$
