ZINC000000002170      none
 OpenBabel11202420153D

 21 22  0  0  0  0  0  0  0  0999 V2000
   33.4992   35.1289   55.4063 C   0  0  0  0  0  0  0  0  0  0  0  0
   33.0691   35.5168   56.7976 C   0  0  0  0  0  0  0  0  0  0  0  0
   32.6497   34.5617   57.6729 C   0  0  0  0  0  0  0  0  0  0  0  0
   32.2480   34.8997   58.9632 C   0  0  0  0  0  0  0  0  0  0  0  0
   31.6738   33.5423   60.1479 Br  0  0  0  0  0  0  0  0  0  0  0  0
   32.2643   36.2095   59.3869 C   0  0  0  0  0  0  0  0  0  0  0  0
   31.8703   36.5254   60.6483 O   0  0  0  0  0  0  0  0  0  0  0  0
   32.6932   37.2207   58.5026 C   0  0  0  0  0  0  0  0  0  0  0  0
   32.7211   38.5015   58.8822 N   0  0  0  0  0  0  0  0  0  0  0  0
   33.1187   39.4461   58.0650 C   0  0  0  0  0  0  0  0  0  0  0  0
   33.5309   39.1639   56.7643 C   0  0  0  0  0  0  0  0  0  0  0  0
   33.5268   37.8752   56.3124 C   0  0  0  0  0  0  0  0  0  0  0  0
   33.0991   36.8635   57.1932 C   0  0  0  0  0  0  0  0  0  0  0  0
   34.5683   34.9164   55.4025 H   0  0  0  0  0  0  0  0  0  0  0  0
   32.9512   34.2411   55.0908 H   0  0  0  0  0  0  0  0  0  0  0  0
   33.2892   35.9487   54.7193 H   0  0  0  0  0  0  0  0  0  0  0  0
   32.6285   33.5275   57.3625 H   0  0  0  0  0  0  0  0  0  0  0  0
   31.5950   35.7638   61.1766 H   0  0  0  0  0  0  0  0  0  0  0  0
   33.1314   40.4693   58.4104 H   0  0  0  0  0  0  0  0  0  0  0  0
   33.8536   39.9637   56.1142 H   0  0  0  0  0  0  0  0  0  0  0  0
   33.8434   37.6387   55.3072 H   0  0  0  0  0  0  0  0  0  0  0  0
  1  2  1  0  0  0  0
  1 14  1  0  0  0  0
  1 15  1  0  0  0  0
  1 16  1  0  0  0  0
  2 13  2  0  0  0  0
  2  3  1  0  0  0  0
  3  4  2  0  0  0  0
  3 17  1  0  0  0  0
  4  5  1  0  0  0  0
  4  6  1  0  0  0  0
  6  7  1  0  0  0  0
  6  8  2  0  0  0  0
  7 18  1  0  0  0  0
  8 13  1  0  0  0  0
  8  9  1  0  0  0  0
  9 10  2  0  0  0  0
 10 11  1  0  0  0  0
 10 19  1  0  0  0  0
 11 12  2  0  0  0  0
 11 20  1  0  0  0  0
 12 13  1  0  0  0  0
 12 21  1  0  0  0  0
M  END
$$$$
