ZINC000000038777      none
 OpenBabel11202420153D

 29 30  0  0  0  0  0  0  0  0999 V2000
   30.6597   38.9559   67.2430 N   0  0  0  0  0  0  0  0  0  0  0  0
   30.9571   38.6282   66.1967 C   0  0  0  0  0  0  0  0  0  0  0  0
   31.3321   38.2150   64.8779 C   0  0  0  0  0  0  0  0  0  0  0  0
   30.7243   38.7977   63.7620 C   0  0  0  0  0  0  0  0  0  0  0  0
   31.0916   38.4021   62.4953 C   0  0  0  0  0  0  0  0  0  0  0  0
   32.0576   37.4155   62.3255 C   0  0  0  0  0  0  0  0  0  0  0  0
   32.4225   37.0128   61.0411 N   0  0  0  0  0  0  0  0  0  0  0  0
   32.3571   37.8866   60.0169 C   0  0  0  0  0  0  0  0  0  0  0  0
   31.9802   39.0255   60.2127 O   0  0  0  0  0  0  0  0  0  0  0  0
   32.7438   37.4598   58.6557 C   0  0  0  0  0  0  0  0  0  0  0  0
   32.6332   36.1188   58.2833 C   0  0  0  0  0  0  0  0  0  0  0  0
   32.9903   35.7282   57.0096 C   0  0  0  0  0  0  0  0  0  0  0  0
   33.4681   36.6603   56.1052 C   0  0  0  0  0  0  0  0  0  0  0  0
   33.5855   37.9897   56.4694 C   0  0  0  0  0  0  0  0  0  0  0  0
   34.0980   38.9798   55.4957 N   0  0  0  0  0  0  0  0  0  0  0  0
   34.4159   38.6237   54.3752 O   0  0  0  0  0  0  0  0  0  0  0  0
   34.2019   40.1505   55.8151 O   0  0  0  0  0  0  0  0  0  0  0  0
   33.2264   38.3948   57.7385 C   0  0  0  0  0  0  0  0  0  0  0  0
   32.6604   36.8294   63.4339 C   0  0  0  0  0  0  0  0  0  0  0  0
   32.3024   37.2241   64.7035 C   0  0  0  0  0  0  0  0  0  0  0  0
   29.9711   39.5604   63.8932 H   0  0  0  0  0  0  0  0  0  0  0  0
   30.6258   38.8550   61.6326 H   0  0  0  0  0  0  0  0  0  0  0  0
   32.7231   36.1040   60.8848 H   0  0  0  0  0  0  0  0  0  0  0  0
   32.2647   35.3897   58.9897 H   0  0  0  0  0  0  0  0  0  0  0  0
   32.9015   34.6919   56.7190 H   0  0  0  0  0  0  0  0  0  0  0  0
   33.7503   36.3485   55.1104 H   0  0  0  0  0  0  0  0  0  0  0  0
   33.3181   39.4330   58.0215 H   0  0  0  0  0  0  0  0  0  0  0  0
   33.4098   36.0634   63.2984 H   0  0  0  0  0  0  0  0  0  0  0  0
   32.7704   36.7684   65.5636 H   0  0  0  0  0  0  0  0  0  0  0  0
  1  2  3  0  0  0  0
  2  3  1  0  0  0  0
  3 20  2  0  0  0  0
  3  4  1  0  0  0  0
  4  5  2  0  0  0  0
  4 21  1  0  0  0  0
  5  6  1  0  0  0  0
  5 22  1  0  0  0  0
  6  7  1  0  0  0  0
  6 19  2  0  0  0  0
  7  8  1  0  0  0  0
  7 23  1  0  0  0  0
  8  9  2  0  0  0  0
  8 10  1  0  0  0  0
 10 18  2  0  0  0  0
 10 11  1  0  0  0  0
 11 12  2  0  0  0  0
 11 24  1  0  0  0  0
 12 13  1  0  0  0  0
 12 25  1  0  0  0  0
 13 14  2  0  0  0  0
 13 26  1  0  0  0  0
 14 15  1  0  0  0  0
 14 18  1  0  0  0  0
 15 16  2  0  0  0  0
 15 17  2  0  0  0  0
 18 27  1  0  0  0  0
 19 20  1  0  0  0  0
 19 28  1  0  0  0  0
 20 29  1  0  0  0  0
M  END
$$$$
