ZINC000000051984      none
 OpenBabel11202420153D

 29 30  0  0  0  0  0  0  0  0999 V2000
   34.7545   32.5556   53.6539 C   0  0  0  0  0  0  0  0  0  0  0  0
   33.6561   32.8563   54.6409 C   0  0  0  0  0  0  0  0  0  0  0  0
   33.4173   32.1848   55.7261 N   0  0  0  0  0  0  0  0  0  0  0  0
   32.3067   32.7901   56.3683 O   0  0  0  0  0  0  0  0  0  0  0  0
   31.9199   33.8872   55.5563 N   0  0  0  0  0  0  0  0  0  0  0  0
   32.7236   33.9147   54.5302 C   0  0  0  0  0  0  0  0  0  0  0  0
   32.6769   34.8188   53.5192 O   0  0  0  0  0  0  0  0  0  0  0  0
   32.8387   36.1943   53.8709 C   0  0  0  0  0  0  0  0  0  0  0  0
   34.2013   36.3934   54.5377 C   0  0  0  0  0  0  0  0  0  0  0  0
   34.3672   37.8036   54.8982 N   0  0  0  0  0  0  0  0  0  0  0  0
   34.0009   38.3882   56.0804 C   0  0  0  0  0  0  0  0  0  0  0  0
   33.3632   37.7180   57.2360 N   0  0  0  0  0  0  0  0  0  0  0  0
   33.0898   38.3572   58.2361 O   0  0  0  0  0  0  0  0  0  0  0  0
   33.1117   36.5273   57.1867 O   0  0  0  0  0  0  0  0  0  0  0  0
   34.3355   39.6897   55.9916 C   0  0  0  0  0  0  0  0  0  0  0  0
   34.8825   39.8960   54.7845 N   0  0  0  0  0  0  0  0  0  0  0  0
   34.9047   38.7707   54.1240 C   0  0  0  0  0  0  0  0  0  0  0  0
   35.4413   38.5819   52.7285 C   0  0  0  0  0  0  0  0  0  0  0  0
   35.6561   33.0986   53.9369 H   0  0  0  0  0  0  0  0  0  0  0  0
   34.9601   31.4852   53.6539 H   0  0  0  0  0  0  0  0  0  0  0  0
   34.4416   32.8654   52.6566 H   0  0  0  0  0  0  0  0  0  0  0  0
   32.7808   36.8083   52.9722 H   0  0  0  0  0  0  0  0  0  0  0  0
   32.0492   36.4877   54.5629 H   0  0  0  0  0  0  0  0  0  0  0  0
   34.2592   35.7794   55.4364 H   0  0  0  0  0  0  0  0  0  0  0  0
   34.9907   36.1001   53.8458 H   0  0  0  0  0  0  0  0  0  0  0  0
   34.1855   40.4371   56.7567 H   0  0  0  0  0  0  0  0  0  0  0  0
   34.6411   38.7443   52.0065 H   0  0  0  0  0  0  0  0  0  0  0  0
   36.2442   39.2967   52.5481 H   0  0  0  0  0  0  0  0  0  0  0  0
   35.8268   37.5680   52.6217 H   0  0  0  0  0  0  0  0  0  0  0  0
  1  2  1  0  0  0  0
  1 19  1  0  0  0  0
  1 20  1  0  0  0  0
  1 21  1  0  0  0  0
  2  6  1  0  0  0  0
  2  3  2  0  0  0  0
  3  4  1  0  0  0  0
  4  5  1  0  0  0  0
  5  6  2  0  0  0  0
  6  7  1  0  0  0  0
  7  8  1  0  0  0  0
  8  9  1  0  0  0  0
  8 22  1  0  0  0  0
  8 23  1  0  0  0  0
  9 10  1  0  0  0  0
  9 24  1  0  0  0  0
  9 25  1  0  0  0  0
 10 17  1  0  0  0  0
 10 11  1  0  0  0  0
 11 12  1  0  0  0  0
 11 15  2  0  0  0  0
 12 13  2  0  0  0  0
 12 14  2  0  0  0  0
 15 16  1  0  0  0  0
 15 26  1  0  0  0  0
 16 17  2  0  0  0  0
 17 18  1  0  0  0  0
 18 27  1  0  0  0  0
 18 28  1  0  0  0  0
 18 29  1  0  0  0  0
M  END
$$$$
