ZINC000000033922      none
 OpenBabel11202420153D

 32 33  0  0  1  0  0  0  0  0999 V2000
   32.5896   34.2652   56.2043 C   0  0  0  0  0  0  0  0  0  0  0  0
   32.8856   35.4289   57.1523 C   0  0  0  0  0  0  0  0  0  0  0  0
   32.4558   35.0894   58.4721 O   0  0  0  0  0  0  0  0  0  0  0  0
   32.0510   36.1122   59.2718 C   0  0  0  0  0  0  0  0  0  0  0  0
   31.0929   35.8899   60.2500 C   0  0  0  0  0  0  0  0  0  0  0  0
   30.6778   36.9291   61.0594 C   0  0  0  0  0  0  0  0  0  0  0  0
   31.2275   38.1944   60.9009 C   0  0  0  0  0  0  0  0  0  0  0  0
   30.8110   39.2468   61.7238 N   0  0  0  0  0  0  0  0  0  0  0  0
   30.3770   38.9851   63.0300 N   0  0  0  0  0  0  0  0  0  0  0  0
   29.1643   39.2588   63.5440 C   0  0  0  0  0  0  0  0  0  0  0  0
   28.2667   39.7840   62.9150 O   0  0  0  0  0  0  0  0  0  0  0  0
   29.0556   38.8848   64.8240 N   0  0  0  0  0  0  0  0  0  0  0  0
   30.1979   38.3338   65.2796 C   0  0  0  0  0  0  0  0  0  0  0  0
   30.4102   37.9037   66.3931 O   0  0  0  0  0  0  0  0  0  0  0  0
   31.1618   38.3626   64.1102 C   0  0  1  0  0  0  0  0  0  0  0  0
   31.5666   37.0010   63.7361 N   0  0  0  0  0  0  0  0  0  0  0  0
   32.1904   38.4149   59.9249 C   0  0  0  0  0  0  0  0  0  0  0  0
   32.6005   37.3757   59.1129 C   0  0  0  0  0  0  0  0  0  0  0  0
   33.1223   33.3764   56.5425 H   0  0  0  0  0  0  0  0  0  0  0  0
   31.5179   34.0657   56.1974 H   0  0  0  0  0  0  0  0  0  0  0  0
   32.9173   34.5241   55.1975 H   0  0  0  0  0  0  0  0  0  0  0  0
   32.3527   36.3177   56.8140 H   0  0  0  0  0  0  0  0  0  0  0  0
   33.9571   35.6285   57.1591 H   0  0  0  0  0  0  0  0  0  0  0  0
   30.6688   34.9048   60.3761 H   0  0  0  0  0  0  0  0  0  0  0  0
   29.9291   36.7566   61.8185 H   0  0  0  0  0  0  0  0  0  0  0  0
   30.8228   40.1574   61.3899 H   0  0  0  0  0  0  0  0  0  0  0  0
   28.2548   39.0001   65.3592 H   0  0  0  0  0  0  0  0  0  0  0  0
   32.0354   38.9695   64.3481 H   0  0  0  0  0  0  0  0  0  0  0  0
   32.1048   36.5688   64.4721 H   0  0  0  0  0  0  0  0  0  0  0  0
   30.7641   36.4382   63.4966 H   0  0  0  0  0  0  0  0  0  0  0  0
   32.6187   39.3986   59.8011 H   0  0  0  0  0  0  0  0  0  0  0  0
   33.3496   37.5470   58.3540 H   0  0  0  0  0  0  0  0  0  0  0  0
  1  2  1  0  0  0  0
  1 19  1  0  0  0  0
  1 20  1  0  0  0  0
  1 21  1  0  0  0  0
  2  3  1  0  0  0  0
  2 22  1  0  0  0  0
  2 23  1  0  0  0  0
  3  4  1  0  0  0  0
  4 18  2  0  0  0  0
  4  5  1  0  0  0  0
  5  6  2  0  0  0  0
  5 24  1  0  0  0  0
  6  7  1  0  0  0  0
  6 25  1  0  0  0  0
  7  8  1  0  0  0  0
  7 17  2  0  0  0  0
  8  9  1  0  0  0  0
  8 26  1  0  0  0  0
  9 15  1  0  0  0  0
  9 10  1  0  0  0  0
 10 11  2  0  0  0  0
 10 12  1  0  0  0  0
 12 13  1  0  0  0  0
 12 27  1  0  0  0  0
 13 14  2  0  0  0  0
 13 15  1  0  0  0  0
 15 16  1  0  0  0  0
 15 28  1  1  0  0  0
 16 29  1  0  0  0  0
 16 30  1  0  0  0  0
 17 18  1  0  0  0  0
 17 31  1  0  0  0  0
 18 32  1  0  0  0  0
M  END
$$$$
