ZINC000000049776      none
 OpenBabel11202420153D

 41 42  0  0  0  0  0  0  0  0999 V2000
   26.2845   41.7480   67.3873 C   0  0  0  0  0  0  0  0  0  0  0  0
   27.2482   41.2164   66.4404 O   0  0  0  0  0  0  0  0  0  0  0  0
   28.3200   40.5784   66.9511 C   0  0  0  0  0  0  0  0  0  0  0  0
   28.4454   40.4694   68.1548 O   0  0  0  0  0  0  0  0  0  0  0  0
   29.3390   40.0133   66.0502 C   0  0  0  0  0  0  0  0  0  0  0  0
   28.9806   39.5668   64.7748 C   0  0  0  0  0  0  0  0  0  0  0  0
   29.9394   39.0447   63.9353 C   0  0  0  0  0  0  0  0  0  0  0  0
   29.5506   38.5641   62.5609 C   0  0  0  0  0  0  0  0  0  0  0  0
   30.2005   37.2312   62.2924 C   0  0  0  0  0  0  0  0  0  0  0  0
   30.1887   36.2490   63.2706 C   0  0  0  0  0  0  0  0  0  0  0  0
   30.7747   35.0222   63.0363 C   0  0  0  0  0  0  0  0  0  0  0  0
   31.3925   34.7671   61.8180 C   0  0  0  0  0  0  0  0  0  0  0  0
   31.9883   33.5355   61.5820 N   0  0  0  0  0  0  0  0  0  0  0  0
   31.4112   35.7617   60.8273 C   0  0  0  0  0  0  0  0  0  0  0  0
   32.0629   35.5050   59.5315 C   0  0  0  0  0  0  0  0  0  0  0  0
   32.5654   36.4217   58.9119 O   0  0  0  0  0  0  0  0  0  0  0  0
   32.1021   34.2534   59.0333 O   0  0  0  0  0  0  0  0  0  0  0  0
   32.7606   34.0744   57.7515 C   0  0  0  0  0  0  0  0  0  0  0  0
   30.8078   36.9974   61.0785 C   0  0  0  0  0  0  0  0  0  0  0  0
   31.2602   38.9585   64.3477 C   0  0  0  0  0  0  0  0  0  0  0  0
   31.6302   39.3951   65.6029 C   0  0  0  0  0  0  0  0  0  0  0  0
   30.6775   39.9250   66.4646 C   0  0  0  0  0  0  0  0  0  0  0  0
   31.0474   40.3651   67.7284 N   0  0  0  0  0  0  0  0  0  0  0  0
   26.7750   42.4732   68.0366 H   0  0  0  0  0  0  0  0  0  0  0  0
   25.4736   42.2351   66.8457 H   0  0  0  0  0  0  0  0  0  0  0  0
   25.8811   40.9346   67.9906 H   0  0  0  0  0  0  0  0  0  0  0  0
   27.9532   39.6309   64.4484 H   0  0  0  0  0  0  0  0  0  0  0  0
   28.4671   38.4576   62.5063 H   0  0  0  0  0  0  0  0  0  0  0  0
   29.8826   39.2869   61.8158 H   0  0  0  0  0  0  0  0  0  0  0  0
   29.7137   36.4438   64.2208 H   0  0  0  0  0  0  0  0  0  0  0  0
   30.7569   34.2608   63.8021 H   0  0  0  0  0  0  0  0  0  0  0  0
   32.1325   33.2330   60.6718 H   0  0  0  0  0  0  0  0  0  0  0  0
   32.2605   32.9777   62.3275 H   0  0  0  0  0  0  0  0  0  0  0  0
   32.7213   33.0231   57.4665 H   0  0  0  0  0  0  0  0  0  0  0  0
   32.2540   34.6749   56.9959 H   0  0  0  0  0  0  0  0  0  0  0  0
   33.8005   34.3911   57.8300 H   0  0  0  0  0  0  0  0  0  0  0  0
   30.8174   37.7678   60.3217 H   0  0  0  0  0  0  0  0  0  0  0  0
   32.0044   38.5470   63.6819 H   0  0  0  0  0  0  0  0  0  0  0  0
   32.6613   39.3247   65.9162 H   0  0  0  0  0  0  0  0  0  0  0  0
   30.3897   40.4037   68.4403 H   0  0  0  0  0  0  0  0  0  0  0  0
   31.9637   40.6339   67.8994 H   0  0  0  0  0  0  0  0  0  0  0  0
  1  2  1  0  0  0  0
  1 24  1  0  0  0  0
  1 25  1  0  0  0  0
  1 26  1  0  0  0  0
  2  3  1  0  0  0  0
  3  4  2  0  0  0  0
  3  5  1  0  0  0  0
  5 22  2  0  0  0  0
  5  6  1  0  0  0  0
  6  7  2  0  0  0  0
  6 27  1  0  0  0  0
  7  8  1  0  0  0  0
  7 20  1  0  0  0  0
  8  9  1  0  0  0  0
  8 28  1  0  0  0  0
  8 29  1  0  0  0  0
  9 19  2  0  0  0  0
  9 10  1  0  0  0  0
 10 11  2  0  0  0  0
 10 30  1  0  0  0  0
 11 12  1  0  0  0  0
 11 31  1  0  0  0  0
 12 13  1  0  0  0  0
 12 14  2  0  0  0  0
 13 32  1  0  0  0  0
 13 33  1  0  0  0  0
 14 15  1  0  0  0  0
 14 19  1  0  0  0  0
 15 16  2  0  0  0  0
 15 17  1  0  0  0  0
 17 18  1  0  0  0  0
 18 34  1  0  0  0  0
 18 35  1  0  0  0  0
 18 36  1  0  0  0  0
 19 37  1  0  0  0  0
 20 21  2  0  0  0  0
 20 38  1  0  0  0  0
 21 22  1  0  0  0  0
 21 39  1  0  0  0  0
 22 23  1  0  0  0  0
 23 40  1  0  0  0  0
 23 41  1  0  0  0  0
M  END
$$$$
