ZINC000000029391      none
 OpenBabel11202420163D

 29 29  0  0  0  0  0  0  0  0999 V2000
   33.5390   37.0896   65.7377 C   0  0  0  0  0  0  0  0  0  0  0  0
   32.3435   36.3676   65.1130 C   0  0  0  0  0  0  0  0  0  0  0  0
   31.0830   36.6714   65.9252 C   0  0  0  0  0  0  0  0  0  0  0  0
   32.1513   36.8502   63.6737 C   0  0  0  0  0  0  0  0  0  0  0  0
   31.0066   36.1588   63.0757 N   0  0  0  0  0  0  0  0  0  0  0  0
   30.1018   36.9108   61.9103 S   0  0  0  0  0  0  0  0  0  0  0  0
   29.7028   38.1606   62.4563 O   0  0  0  0  0  0  0  0  0  0  0  0
   29.1793   35.9419   61.4312 O   0  0  0  0  0  0  0  0  0  0  0  0
   31.1817   37.2767   60.5669 C   0  0  0  0  0  0  0  0  0  0  0  0
   31.8565   38.4827   60.5313 C   0  0  0  0  0  0  0  0  0  0  0  0
   32.7037   38.7697   59.4774 C   0  0  0  0  0  0  0  0  0  0  0  0
   32.8769   37.8504   58.4596 C   0  0  0  0  0  0  0  0  0  0  0  0
   32.1984   36.6465   58.4928 C   0  0  0  0  0  0  0  0  0  0  0  0
   31.3545   36.3576   59.5490 C   0  0  0  0  0  0  0  0  0  0  0  0
   33.6758   36.7458   66.7630 H   0  0  0  0  0  0  0  0  0  0  0  0
   34.4370   36.8731   65.1591 H   0  0  0  0  0  0  0  0  0  0  0  0
   33.3560   38.1641   65.7361 H   0  0  0  0  0  0  0  0  0  0  0  0
   32.5265   35.2930   65.1145 H   0  0  0  0  0  0  0  0  0  0  0  0
   30.2312   36.1571   65.4802 H   0  0  0  0  0  0  0  0  0  0  0  0
   31.2198   36.3276   66.9505 H   0  0  0  0  0  0  0  0  0  0  0  0
   30.8999   37.7459   65.9238 H   0  0  0  0  0  0  0  0  0  0  0  0
   33.0494   36.6337   63.0951 H   0  0  0  0  0  0  0  0  0  0  0  0
   31.9684   37.9246   63.6722 H   0  0  0  0  0  0  0  0  0  0  0  0
   30.7786   35.2606   63.3624 H   0  0  0  0  0  0  0  0  0  0  0  0
   31.7214   39.2008   61.3266 H   0  0  0  0  0  0  0  0  0  0  0  0
   33.2306   39.7120   59.4493 H   0  0  0  0  0  0  0  0  0  0  0  0
   33.5388   38.0747   57.6362 H   0  0  0  0  0  0  0  0  0  0  0  0
   32.3303   35.9301   57.6955 H   0  0  0  0  0  0  0  0  0  0  0  0
   30.8276   35.4153   59.5770 H   0  0  0  0  0  0  0  0  0  0  0  0
  1  2  1  0  0  0  0
  1 15  1  0  0  0  0
  1 16  1  0  0  0  0
  1 17  1  0  0  0  0
  2  3  1  0  0  0  0
  2  4  1  0  0  0  0
  2 18  1  0  0  0  0
  3 19  1  0  0  0  0
  3 20  1  0  0  0  0
  3 21  1  0  0  0  0
  4  5  1  0  0  0  0
  4 22  1  0  0  0  0
  4 23  1  0  0  0  0
  5  6  1  0  0  0  0
  5 24  1  0  0  0  0
  6  7  2  0  0  0  0
  6  8  2  0  0  0  0
  6  9  1  0  0  0  0
  9 14  2  0  0  0  0
  9 10  1  0  0  0  0
 10 11  2  0  0  0  0
 10 25  1  0  0  0  0
 11 12  1  0  0  0  0
 11 26  1  0  0  0  0
 12 13  2  0  0  0  0
 12 27  1  0  0  0  0
 13 14  1  0  0  0  0
 13 28  1  0  0  0  0
 14 29  1  0  0  0  0
M  END
$$$$
