ZINC000000034462      none
 OpenBabel11202420153D

 31 33  0  0  0  0  0  0  0  0999 V2000
   28.1751   35.0399   67.3695 C   0  0  0  0  0  0  0  0  0  0  0  0
   28.7001   36.1928   68.0310 O   0  0  0  0  0  0  0  0  0  0  0  0
   28.7097   37.3541   67.3300 C   0  0  0  0  0  0  0  0  0  0  0  0
   27.6203   38.2091   67.3869 C   0  0  0  0  0  0  0  0  0  0  0  0
   27.6283   39.3925   66.6736 C   0  0  0  0  0  0  0  0  0  0  0  0
   26.4652   40.3048   66.7502 N   0  0  0  0  0  0  0  0  0  0  0  0
   25.5054   40.0113   67.4403 O   0  0  0  0  0  0  0  0  0  0  0  0
   26.4679   41.3489   66.1231 O   0  0  0  0  0  0  0  0  0  0  0  0
   28.7156   39.7305   65.8890 C   0  0  0  0  0  0  0  0  0  0  0  0
   29.8110   38.8839   65.8091 C   0  0  0  0  0  0  0  0  0  0  0  0
   29.8226   37.6935   66.5454 C   0  0  0  0  0  0  0  0  0  0  0  0
   30.9922   36.8093   66.5169 C   0  0  0  0  0  0  0  0  0  0  0  0
   31.3090   36.2623   67.5557 O   0  0  0  0  0  0  0  0  0  0  0  0
   31.7301   36.5610   65.4431 N   0  0  0  0  0  0  0  0  0  0  0  0
   31.5244   37.0742   64.1634 C   0  0  0  0  0  0  0  0  0  0  0  0
   31.7229   36.2430   63.0656 C   0  0  0  0  0  0  0  0  0  0  0  0
   31.5584   36.7301   61.7841 C   0  0  0  0  0  0  0  0  0  0  0  0
   31.1966   38.0494   61.5849 C   0  0  0  0  0  0  0  0  0  0  0  0
   30.9849   38.8788   62.6698 C   0  0  0  0  0  0  0  0  0  0  0  0
   31.1339   38.3923   63.9611 C   0  0  0  0  0  0  0  0  0  0  0  0
   30.8500   39.2086   65.0071 O   0  0  0  0  0  0  0  0  0  0  0  0
   27.1372   35.2224   67.0907 H   0  0  0  0  0  0  0  0  0  0  0  0
   28.7616   34.8365   66.4736 H   0  0  0  0  0  0  0  0  0  0  0  0
   28.2259   34.1819   68.0397 H   0  0  0  0  0  0  0  0  0  0  0  0
   26.7630   37.9496   67.9902 H   0  0  0  0  0  0  0  0  0  0  0  0
   28.7118   40.6582   65.3360 H   0  0  0  0  0  0  0  0  0  0  0  0
   32.4859   35.9644   65.5595 H   0  0  0  0  0  0  0  0  0  0  0  0
   32.0077   35.2122   63.2164 H   0  0  0  0  0  0  0  0  0  0  0  0
   31.7127   36.0795   60.9360 H   0  0  0  0  0  0  0  0  0  0  0  0
   31.0790   38.4316   60.5818 H   0  0  0  0  0  0  0  0  0  0  0  0
   30.7029   39.9093   62.5122 H   0  0  0  0  0  0  0  0  0  0  0  0
  1  2  1  0  0  0  0
  1 22  1  0  0  0  0
  1 23  1  0  0  0  0
  1 24  1  0  0  0  0
  2  3  1  0  0  0  0
  3 11  2  0  0  0  0
  3  4  1  0  0  0  0
  4  5  2  0  0  0  0
  4 25  1  0  0  0  0
  5  6  1  0  0  0  0
  5  9  1  0  0  0  0
  6  7  2  0  0  0  0
  6  8  2  0  0  0  0
  9 10  2  0  0  0  0
  9 26  1  0  0  0  0
 10 21  1  0  0  0  0
 10 11  1  0  0  0  0
 11 12  1  0  0  0  0
 12 13  2  0  0  0  0
 12 14  1  0  0  0  0
 14 15  1  0  0  0  0
 14 27  1  0  0  0  0
 15 20  2  0  0  0  0
 15 16  1  0  0  0  0
 16 17  2  0  0  0  0
 16 28  1  0  0  0  0
 17 18  1  0  0  0  0
 17 29  1  0  0  0  0
 18 19  2  0  0  0  0
 18 30  1  0  0  0  0
 19 20  1  0  0  0  0
 19 31  1  0  0  0  0
 20 21  1  0  0  0  0
M  END
$$$$
