ZINC000000045807      none
 OpenBabel11202420153D

 40 43  0  0  0  0  0  0  0  0999 V2000
   34.8406   36.8740   52.7272 C   0  0  0  0  0  0  0  0  0  0  0  0
   34.3733   37.1591   54.1313 C   0  0  0  0  0  0  0  0  0  0  0  0
   34.3331   38.4194   54.7415 C   0  0  0  0  0  0  0  0  0  0  0  0
   33.8562   38.2603   55.9963 C   0  0  0  0  0  0  0  0  0  0  0  0
   33.6446   39.3521   57.0133 C   0  0  0  0  0  0  0  0  0  0  0  0
   33.6019   36.9355   56.1747 N   0  0  0  0  0  0  0  0  0  0  0  0
   33.1012   36.3474   57.3259 C   0  0  0  0  0  0  0  0  0  0  0  0
   32.8447   37.1115   58.3536 N   0  0  0  0  0  0  0  0  0  0  0  0
   32.3497   36.6045   59.5078 C   0  0  0  0  0  0  0  0  0  0  0  0
   32.0697   37.4209   60.6069 C   0  0  0  0  0  0  0  0  0  0  0  0
   31.5752   36.8652   61.7535 C   0  0  0  0  0  0  0  0  0  0  0  0
   31.3465   35.4984   61.8443 C   0  0  0  0  0  0  0  0  0  0  0  0
   31.6108   34.6737   60.7856 C   0  0  0  0  0  0  0  0  0  0  0  0
   32.1153   35.2140   59.6038 C   0  0  0  0  0  0  0  0  0  0  0  0
   32.4180   34.3779   58.4341 C   0  0  0  0  0  0  0  0  0  0  0  0
   32.2373   33.1742   58.4545 O   0  0  0  0  0  0  0  0  0  0  0  0
   32.9050   34.9960   57.3331 N   0  0  0  0  0  0  0  0  0  0  0  0
   33.2097   34.2437   56.1915 C   0  0  0  0  0  0  0  0  0  0  0  0
   32.2392   34.0258   55.2225 C   0  0  0  0  0  0  0  0  0  0  0  0
   32.5447   33.2891   54.0949 C   0  0  0  0  0  0  0  0  0  0  0  0
   33.8113   32.7581   53.9362 C   0  0  0  0  0  0  0  0  0  0  0  0
   34.7784   32.9683   54.9024 C   0  0  0  0  0  0  0  0  0  0  0  0
   34.4811   33.7096   56.0292 C   0  0  0  0  0  0  0  0  0  0  0  0
   33.9314   36.2730   54.9851 N   0  0  0  0  0  0  0  0  0  0  0  0
   35.9241   36.7557   52.7219 H   0  0  0  0  0  0  0  0  0  0  0  0
   34.3732   35.9571   52.3679 H   0  0  0  0  0  0  0  0  0  0  0  0
   34.5624   37.7028   52.0765 H   0  0  0  0  0  0  0  0  0  0  0  0
   34.6309   39.3536   54.2891 H   0  0  0  0  0  0  0  0  0  0  0  0
   32.6361   39.7527   56.9117 H   0  0  0  0  0  0  0  0  0  0  0  0
   33.7743   38.9448   58.0159 H   0  0  0  0  0  0  0  0  0  0  0  0
   34.3703   40.1484   56.8478 H   0  0  0  0  0  0  0  0  0  0  0  0
   32.2433   38.4854   60.5506 H   0  0  0  0  0  0  0  0  0  0  0  0
   31.3596   37.4984   62.6014 H   0  0  0  0  0  0  0  0  0  0  0  0
   30.9553   35.0822   62.7608 H   0  0  0  0  0  0  0  0  0  0  0  0
   31.4297   33.6119   60.8645 H   0  0  0  0  0  0  0  0  0  0  0  0
   31.2482   34.4361   55.3480 H   0  0  0  0  0  0  0  0  0  0  0  0
   31.7918   33.1236   53.3384 H   0  0  0  0  0  0  0  0  0  0  0  0
   34.0462   32.1783   53.0558 H   0  0  0  0  0  0  0  0  0  0  0  0
   35.7671   32.5526   54.7755 H   0  0  0  0  0  0  0  0  0  0  0  0
   35.2367   33.8739   56.7829 H   0  0  0  0  0  0  0  0  0  0  0  0
  1  2  1  0  0  0  0
  1 25  1  0  0  0  0
  1 26  1  0  0  0  0
  1 27  1  0  0  0  0
  2 24  2  0  0  0  0
  2  3  1  0  0  0  0
  3  4  2  0  0  0  0
  3 28  1  0  0  0  0
  4  5  1  0  0  0  0
  4  6  1  0  0  0  0
  5 29  1  0  0  0  0
  5 30  1  0  0  0  0
  5 31  1  0  0  0  0
  6  7  1  0  0  0  0
  6 24  1  0  0  0  0
  7 17  1  0  0  0  0
  7  8  2  0  0  0  0
  8  9  1  0  0  0  0
  9 14  2  0  0  0  0
  9 10  1  0  0  0  0
 10 11  2  0  0  0  0
 10 32  1  0  0  0  0
 11 12  1  0  0  0  0
 11 33  1  0  0  0  0
 12 13  2  0  0  0  0
 12 34  1  0  0  0  0
 13 14  1  0  0  0  0
 13 35  1  0  0  0  0
 14 15  1  0  0  0  0
 15 16  2  0  0  0  0
 15 17  1  0  0  0  0
 17 18  1  0  0  0  0
 18 23  2  0  0  0  0
 18 19  1  0  0  0  0
 19 20  2  0  0  0  0
 19 36  1  0  0  0  0
 20 21  1  0  0  0  0
 20 37  1  0  0  0  0
 21 22  2  0  0  0  0
 21 38  1  0  0  0  0
 22 23  1  0  0  0  0
 22 39  1  0  0  0  0
 23 40  1  0  0  0  0
M  END
$$$$
