ZINC000000033217      none
 OpenBabel11202420153D

 41 43  0  0  1  0  0  0  0  0999 V2000
   28.5729   39.6447   63.5351 O   0  0  0  0  0  0  0  0  0  0  0  0
   29.1499   39.0212   64.3999 C   0  0  0  0  0  0  0  0  0  0  0  0
   29.0735   39.3049   65.8842 C   0  0  0  0  0  0  0  0  0  0  0  0
   29.9843   38.2265   66.5058 C   0  0  2  0  0  0  0  0  0  0  0  0
   29.4139   37.5814   67.1740 H   0  0  0  0  0  0  0  0  0  0  0  0
   31.1083   38.8474   67.2189 N   0  0  0  0  0  0  0  0  0  0  0  0
   32.0970   39.3799   66.2784 C   0  0  0  0  0  0  0  0  0  0  0  0
   33.0067   40.3849   66.9930 C   0  0  0  0  0  0  0  0  0  0  0  0
   33.8986   39.5154   68.3187 S   0  0  0  0  0  0  0  0  0  0  0  0
   32.5421   38.6873   69.2035 C   0  0  0  0  0  0  0  0  0  0  0  0
   31.6962   37.9160   68.1845 C   0  0  0  0  0  0  0  0  0  0  0  0
   30.4795   37.4467   65.3072 C   0  0  0  0  0  0  0  0  0  0  0  0
   31.2311   36.4964   65.3494 O   0  0  0  0  0  0  0  0  0  0  0  0
   29.9555   37.9721   64.1928 N   0  0  0  0  0  0  0  0  0  0  0  0
   30.2355   37.4389   62.8573 C   0  0  0  0  0  0  0  0  0  0  0  0
   31.4619   38.1437   62.2738 C   0  0  0  0  0  0  0  0  0  0  0  0
   31.7499   37.5953   60.9000 C   0  0  0  0  0  0  0  0  0  0  0  0
   32.3335   38.4030   59.9418 C   0  0  0  0  0  0  0  0  0  0  0  0
   32.6017   37.8987   58.6830 C   0  0  0  0  0  0  0  0  0  0  0  0
   32.2780   36.5895   58.3795 C   0  0  0  0  0  0  0  0  0  0  0  0
   31.6896   35.7835   59.3360 C   0  0  0  0  0  0  0  0  0  0  0  0
   31.4254   36.2864   60.5962 C   0  0  0  0  0  0  0  0  0  0  0  0
   29.4547   40.3020   66.1043 H   0  0  0  0  0  0  0  0  0  0  0  0
   28.0497   39.1989   66.2429 H   0  0  0  0  0  0  0  0  0  0  0  0
   32.7000   38.5615   65.8849 H   0  0  0  0  0  0  0  0  0  0  0  0
   31.5831   39.8775   65.4560 H   0  0  0  0  0  0  0  0  0  0  0  0
   32.4032   41.1851   67.4214 H   0  0  0  0  0  0  0  0  0  0  0  0
   33.7213   40.8013   66.2830 H   0  0  0  0  0  0  0  0  0  0  0  0
   31.9232   39.4318   69.7043 H   0  0  0  0  0  0  0  0  0  0  0  0
   32.9529   37.9944   69.9377 H   0  0  0  0  0  0  0  0  0  0  0  0
   30.9001   37.3829   68.7043 H   0  0  0  0  0  0  0  0  0  0  0  0
   32.3282   37.2002   67.6587 H   0  0  0  0  0  0  0  0  0  0  0  0
   30.4303   36.3688   62.9268 H   0  0  0  0  0  0  0  0  0  0  0  0
   29.3755   37.6105   62.2099 H   0  0  0  0  0  0  0  0  0  0  0  0
   31.2672   39.2139   62.2044 H   0  0  0  0  0  0  0  0  0  0  0  0
   32.3219   37.9720   62.9212 H   0  0  0  0  0  0  0  0  0  0  0  0
   32.5830   39.4270   60.1777 H   0  0  0  0  0  0  0  0  0  0  0  0
   33.0617   38.5284   57.9357 H   0  0  0  0  0  0  0  0  0  0  0  0
   32.4851   36.1962   57.3952 H   0  0  0  0  0  0  0  0  0  0  0  0
   31.4367   34.7605   59.0989 H   0  0  0  0  0  0  0  0  0  0  0  0
   30.9658   35.6567   61.3435 H   0  0  0  0  0  0  0  0  0  0  0  0
  1  2  2  0  0  0  0
  2 14  1  0  0  0  0
  2  3  1  0  0  0  0
  3  4  1  0  0  0  0
  3 23  1  0  0  0  0
  3 24  1  0  0  0  0
  4  5  1  1  0  0  0
  4  6  1  0  0  0  0
  4 12  1  0  0  0  0
  6 11  1  0  0  0  0
  6  7  1  0  0  0  0
  7  8  1  0  0  0  0
  7 25  1  0  0  0  0
  7 26  1  0  0  0  0
  8  9  1  0  0  0  0
  8 27  1  0  0  0  0
  8 28  1  0  0  0  0
  9 10  1  0  0  0  0
 10 11  1  0  0  0  0
 10 29  1  0  0  0  0
 10 30  1  0  0  0  0
 11 31  1  0  0  0  0
 11 32  1  0  0  0  0
 12 13  2  0  0  0  0
 12 14  1  0  0  0  0
 14 15  1  0  0  0  0
 15 16  1  0  0  0  0
 15 33  1  0  0  0  0
 15 34  1  0  0  0  0
 16 17  1  0  0  0  0
 16 35  1  0  0  0  0
 16 36  1  0  0  0  0
 17 22  2  0  0  0  0
 17 18  1  0  0  0  0
 18 19  2  0  0  0  0
 18 37  1  0  0  0  0
 19 20  1  0  0  0  0
 19 38  1  0  0  0  0
 20 21  2  0  0  0  0
 20 39  1  0  0  0  0
 21 22  1  0  0  0  0
 21 40  1  0  0  0  0
 22 41  1  0  0  0  0
M  END
$$$$
