ZINC000000001181      none
 OpenBabel11202420153D

 31 33  0  0  0  0  0  0  0  0999 V2000
   33.2157   35.5546   70.1436 O   0  0  0  0  0  0  0  0  0  0  0  0
   33.0477   36.4306   69.3226 C   0  0  0  0  0  0  0  0  0  0  0  0
   32.6020   36.2636   67.8835 C   0  0  0  0  0  0  0  0  0  0  0  0
   32.5696   37.6434   67.3687 N   0  0  0  0  0  0  0  0  0  0  0  0
   32.2168   38.0457   66.0738 N   0  0  0  0  0  0  0  0  0  0  0  0
   32.4344   37.2539   65.0644 C   0  0  0  0  0  0  0  0  0  0  0  0
   32.0656   37.6744   63.7109 C   0  0  0  0  0  0  0  0  0  0  0  0
   31.0402   38.5186   63.3860 C   0  0  0  0  0  0  0  0  0  0  0  0
   31.0442   38.6474   61.9906 C   0  0  0  0  0  0  0  0  0  0  0  0
   32.0685   37.8789   61.5219 C   0  0  0  0  0  0  0  0  0  0  0  0
   32.4454   37.7148   60.1040 C   0  0  0  0  0  0  0  0  0  0  0  0
   32.4295   36.4475   59.5163 C   0  0  0  0  0  0  0  0  0  0  0  0
   32.7770   36.3010   58.1898 C   0  0  0  0  0  0  0  0  0  0  0  0
   33.1530   37.4051   57.4431 C   0  0  0  0  0  0  0  0  0  0  0  0
   33.5959   37.2108   55.7759 Cl  0  0  0  0  0  0  0  0  0  0  0  0
   33.1765   38.6645   58.0212 C   0  0  0  0  0  0  0  0  0  0  0  0
   33.6486   40.0425   57.0769 Cl  0  0  0  0  0  0  0  0  0  0  0  0
   32.8249   38.8249   59.3464 C   0  0  0  0  0  0  0  0  0  0  0  0
   32.6825   37.3001   62.5718 O   0  0  0  0  0  0  0  0  0  0  0  0
   32.9443   38.4419   68.3844 C   0  0  0  0  0  0  0  0  0  0  0  0
   33.0255   39.6518   68.2982 O   0  0  0  0  0  0  0  0  0  0  0  0
   33.2177   37.7558   69.4999 N   0  0  0  0  0  0  0  0  0  0  0  0
   33.3214   35.6632   67.3264 H   0  0  0  0  0  0  0  0  0  0  0  0
   31.6100   35.8142   67.8389 H   0  0  0  0  0  0  0  0  0  0  0  0
   32.8870   36.2864   65.2247 H   0  0  0  0  0  0  0  0  0  0  0  0
   30.3576   38.9957   64.0737 H   0  0  0  0  0  0  0  0  0  0  0  0
   30.3644   39.2420   61.3985 H   0  0  0  0  0  0  0  0  0  0  0  0
   32.1409   35.5847   60.0983 H   0  0  0  0  0  0  0  0  0  0  0  0
   32.7603   35.3223   57.7335 H   0  0  0  0  0  0  0  0  0  0  0  0
   32.8435   39.8066   59.7963 H   0  0  0  0  0  0  0  0  0  0  0  0
   33.4996   38.1621   70.3344 H   0  0  0  0  0  0  0  0  0  0  0  0
  1  2  2  0  0  0  0
  2 22  1  0  0  0  0
  2  3  1  0  0  0  0
  3  4  1  0  0  0  0
  3 23  1  0  0  0  0
  3 24  1  0  0  0  0
  4  5  1  0  0  0  0
  4 20  1  0  0  0  0
  5  6  2  0  0  0  0
  6  7  1  0  0  0  0
  6 25  1  0  0  0  0
  7 19  1  0  0  0  0
  7  8  2  0  0  0  0
  8  9  1  0  0  0  0
  8 26  1  0  0  0  0
  9 10  2  0  0  0  0
  9 27  1  0  0  0  0
 10 11  1  0  0  0  0
 10 19  1  0  0  0  0
 11 18  2  0  0  0  0
 11 12  1  0  0  0  0
 12 13  2  0  0  0  0
 12 28  1  0  0  0  0
 13 14  1  0  0  0  0
 13 29  1  0  0  0  0
 14 15  1  0  0  0  0
 14 16  2  0  0  0  0
 16 17  1  0  0  0  0
 16 18  1  0  0  0  0
 18 30  1  0  0  0  0
 20 21  2  0  0  0  0
 20 22  1  0  0  0  0
 22 31  1  0  0  0  0
M  END
$$$$
