ZINC000000000542      none
 OpenBabel11202420153D

 32 33  0  0  1  0  0  0  0  0999 V2000
   29.3549   39.0649   63.2260 C   0  0  0  0  0  0  0  0  0  0  0  0
   29.7582   38.0949   64.3382 C   0  0  2  0  0  0  0  0  0  0  0  0
   28.9307   37.4165   64.5462 H   0  0  0  0  0  0  0  0  0  0  0  0
   30.0940   38.8849   65.6011 C   0  0  0  0  0  0  0  0  0  0  0  0
   30.6232   37.7288   66.8987 S   0  0  0  0  0  0  0  0  0  0  0  0
   29.5715   36.8043   67.1402 O   0  0  0  0  0  0  0  0  0  0  0  0
   31.1565   38.4761   67.9832 O   0  0  0  0  0  0  0  0  0  0  0  0
   31.9841   36.8571   66.0689 C   0  0  0  0  0  0  0  0  0  0  0  0
   31.4646   36.2566   64.7588 C   0  0  0  0  0  0  0  0  0  0  0  0
   30.9266   37.3226   63.9120 N   0  0  0  0  0  0  0  0  0  0  0  0
   31.4904   37.5875   62.7823 N   0  0  0  0  0  0  0  0  0  0  0  0
   31.5682   36.6411   61.8323 C   0  0  0  0  0  0  0  0  0  0  0  0
   32.0451   36.9599   60.5801 C   0  0  0  0  0  0  0  0  0  0  0  0
   32.1863   36.0435   59.4323 C   0  0  0  0  0  0  0  0  0  0  0  0
   32.6947   36.7957   58.4144 C   0  0  0  0  0  0  0  0  0  0  0  0
   32.8620   38.0968   58.8889 C   0  0  0  0  0  0  0  0  0  0  0  0
   33.3926   39.2271   58.0940 N   0  0  0  0  0  0  0  0  0  0  0  0
   33.7474   39.0406   56.8394 O   0  0  0  0  0  0  0  0  0  0  0  0
   33.5101   40.4192   58.6413 O   0  0  0  0  0  0  0  0  0  0  0  0
   32.4692   38.1760   60.1630 O   0  0  0  0  0  0  0  0  0  0  0  0
   29.1099   38.5028   62.3247 H   0  0  0  0  0  0  0  0  0  0  0  0
   28.4848   39.6399   63.5432 H   0  0  0  0  0  0  0  0  0  0  0  0
   30.1823   39.7431   63.0174 H   0  0  0  0  0  0  0  0  0  0  0  0
   29.2122   39.4310   65.9365 H   0  0  0  0  0  0  0  0  0  0  0  0
   30.8993   39.5878   65.3881 H   0  0  0  0  0  0  0  0  0  0  0  0
   32.3540   36.0602   66.7140 H   0  0  0  0  0  0  0  0  0  0  0  0
   32.7913   37.5574   65.8546 H   0  0  0  0  0  0  0  0  0  0  0  0
   30.6781   35.5342   64.9769 H   0  0  0  0  0  0  0  0  0  0  0  0
   32.2822   35.7575   64.2388 H   0  0  0  0  0  0  0  0  0  0  0  0
   31.2570   35.6302   62.0503 H   0  0  0  0  0  0  0  0  0  0  0  0
   31.9376   34.9929   59.4038 H   0  0  0  0  0  0  0  0  0  0  0  0
   32.9265   36.4464   57.4190 H   0  0  0  0  0  0  0  0  0  0  0  0
  1  2  1  0  0  0  0
  1 21  1  0  0  0  0
  1 22  1  0  0  0  0
  1 23  1  0  0  0  0
  2  3  1  1  0  0  0
  2 10  1  0  0  0  0
  2  4  1  0  0  0  0
  4  5  1  0  0  0  0
  4 24  1  0  0  0  0
  4 25  1  0  0  0  0
  5  6  2  0  0  0  0
  5  7  2  0  0  0  0
  5  8  1  0  0  0  0
  8  9  1  0  0  0  0
  8 26  1  0  0  0  0
  8 27  1  0  0  0  0
  9 10  1  0  0  0  0
  9 28  1  0  0  0  0
  9 29  1  0  0  0  0
 10 11  1  0  0  0  0
 11 12  2  0  0  0  0
 12 13  1  0  0  0  0
 12 30  1  0  0  0  0
 13 20  1  0  0  0  0
 13 14  2  0  0  0  0
 14 15  1  0  0  0  0
 14 31  1  0  0  0  0
 15 16  2  0  0  0  0
 15 32  1  0  0  0  0
 16 17  1  0  0  0  0
 16 20  1  0  0  0  0
 17 18  2  0  0  0  0
 17 19  2  0  0  0  0
M  END
$$$$
