ZINC000000017831      none
 OpenBabel11202420153D

 19 19  0  0  0  0  0  0  0  0999 V2000
   33.5964   35.6431   52.7661 C   0  0  0  0  0  0  0  0  0  0  0  0
   34.0363   36.6955   53.7859 C   0  0  0  0  0  0  0  0  0  0  0  0
   35.5638   36.7152   53.8717 C   0  0  0  0  0  0  0  0  0  0  0  0
   33.3446   36.2877   55.4124 S   0  0  0  0  0  0  0  0  0  0  0  0
   33.4255   37.8226   56.2738 C   0  0  0  0  0  0  0  0  0  0  0  0
   33.8848   38.9334   55.7879 N   0  0  0  0  0  0  0  0  0  0  0  0
   33.8521   40.0149   56.6407 N   0  0  0  0  0  0  0  0  0  0  0  0
   33.3664   39.7844   57.8197 C   0  0  0  0  0  0  0  0  0  0  0  0
   33.2391   40.7241   58.8360 N   0  0  0  0  0  0  0  0  0  0  0  0
   32.8884   38.0936   57.9282 S   0  0  0  0  0  0  0  0  0  0  0  0
   33.9555   34.6624   53.0781 H   0  0  0  0  0  0  0  0  0  0  0  0
   32.5083   35.6291   52.7050 H   0  0  0  0  0  0  0  0  0  0  0  0
   34.0121   35.8881   51.7887 H   0  0  0  0  0  0  0  0  0  0  0  0
   33.6773   37.6762   53.4738 H   0  0  0  0  0  0  0  0  0  0  0  0
   35.9795   36.9603   52.8944 H   0  0  0  0  0  0  0  0  0  0  0  0
   35.8772   37.4650   54.5981 H   0  0  0  0  0  0  0  0  0  0  0  0
   35.9229   35.7345   54.1837 H   0  0  0  0  0  0  0  0  0  0  0  0
   33.5258   41.6390   58.6892 H   0  0  0  0  0  0  0  0  0  0  0  0
   32.8633   40.4649   59.6919 H   0  0  0  0  0  0  0  0  0  0  0  0
  1  2  1  0  0  0  0
  1 11  1  0  0  0  0
  1 12  1  0  0  0  0
  1 13  1  0  0  0  0
  2  3  1  0  0  0  0
  2  4  1  0  0  0  0
  2 14  1  0  0  0  0
  3 15  1  0  0  0  0
  3 16  1  0  0  0  0
  3 17  1  0  0  0  0
  4  5  1  0  0  0  0
  5 10  1  0  0  0  0
  5  6  2  0  0  0  0
  6  7  1  0  0  0  0
  7  8  2  0  0  0  0
  8  9  1  0  0  0  0
  8 10  1  0  0  0  0
  9 18  1  0  0  0  0
  9 19  1  0  0  0  0
M  END
$$$$
