ZINC000000013845      none
 OpenBabel11202420153D

 23 24  0  0  0  0  0  0  0  0999 V2000
   32.7044   36.4465   63.2548 C   0  0  0  0  0  0  0  0  0  0  0  0
   31.2259   36.7026   62.9562 C   0  0  0  0  0  0  0  0  0  0  0  0
   31.1053   37.7384   61.8682 C   0  0  0  0  0  0  0  0  0  0  0  0
   30.5206   38.7789   62.0835 O   0  0  0  0  0  0  0  0  0  0  0  0
   31.6961   37.4877   60.5469 C   0  0  0  0  0  0  0  0  0  0  0  0
   31.8038   36.1805   60.0530 C   0  0  0  0  0  0  0  0  0  0  0  0
   32.3537   35.9406   58.8332 C   0  0  0  0  0  0  0  0  0  0  0  0
   32.8207   36.9943   58.0261 C   0  0  0  0  0  0  0  0  0  0  0  0
   33.3937   36.9108   56.7755 N   0  0  0  0  0  0  0  0  0  0  0  0
   33.5143   36.0503   56.3442 H   0  0  0  0  0  0  0  0  0  0  0  0
   33.7805   38.0363   56.1677 C   0  0  0  0  0  0  0  0  0  0  0  0
   34.2992   38.1344   55.0711 O   0  0  0  0  0  0  0  0  0  0  0  0
   33.3862   39.3565   57.2813 S   0  0  0  0  0  0  0  0  0  0  0  0
   32.7098   38.2963   58.5256 C   0  0  0  0  0  0  0  0  0  0  0  0
   32.1589   38.5511   59.7632 C   0  0  0  0  0  0  0  0  0  0  0  0
   32.7917   35.6973   64.0418 H   0  0  0  0  0  0  0  0  0  0  0  0
   33.2001   36.0860   62.3535 H   0  0  0  0  0  0  0  0  0  0  0  0
   33.1750   37.3737   63.5820 H   0  0  0  0  0  0  0  0  0  0  0  0
   30.7304   37.0630   63.8575 H   0  0  0  0  0  0  0  0  0  0  0  0
   30.7555   35.7754   62.6289 H   0  0  0  0  0  0  0  0  0  0  0  0
   31.4498   35.3535   60.6507 H   0  0  0  0  0  0  0  0  0  0  0  0
   32.4297   34.9243   58.4758 H   0  0  0  0  0  0  0  0  0  0  0  0
   32.0851   39.5656   60.1262 H   0  0  0  0  0  0  0  0  0  0  0  0
  1  2  1  0  0  0  0
  1 16  1  0  0  0  0
  1 17  1  0  0  0  0
  1 18  1  0  0  0  0
  2  3  1  0  0  0  0
  2 19  1  0  0  0  0
  2 20  1  0  0  0  0
  3  4  2  0  0  0  0
  3  5  1  0  0  0  0
  5 15  2  0  0  0  0
  5  6  1  0  0  0  0
  6  7  2  0  0  0  0
  6 21  1  0  0  0  0
  7  8  1  0  0  0  0
  7 22  1  0  0  0  0
  8 14  2  0  0  0  0
  8  9  1  0  0  0  0
  9 10  1  0  0  0  0
  9 11  1  0  0  0  0
 11 12  2  0  0  0  0
 11 13  1  0  0  0  0
 13 14  1  0  0  0  0
 14 15  1  0  0  0  0
 15 23  1  0  0  0  0
M  END
$$$$
