ZINC000000028534      none
 OpenBabel11202420163D

 42 44  0  0  0  0  0  0  0  0999 V2000
   33.7122   37.6199   65.8477 C   0  0  0  0  0  0  0  0  0  0  0  0
   32.4409   37.5157   65.5495 C   0  0  0  0  0  0  0  0  0  0  0  0
   31.3970   38.0095   66.5176 C   0  0  0  0  0  0  0  0  0  0  0  0
   32.0224   36.9022   64.2382 C   0  0  0  0  0  0  0  0  0  0  0  0
   31.0755   38.1118   63.2811 S   0  0  0  0  0  0  0  0  0  0  0  0
   31.4840   37.5961   61.6465 C   0  0  0  0  0  0  0  0  0  0  0  0
   32.0840   38.4494   60.8538 N   0  0  0  0  0  0  0  0  0  0  0  0
   32.4247   38.1218   59.5913 C   0  0  0  0  0  0  0  0  0  0  0  0
   33.0646   39.0328   58.7453 C   0  0  0  0  0  0  0  0  0  0  0  0
   33.3910   38.6592   57.4722 C   0  0  0  0  0  0  0  0  0  0  0  0
   33.0974   37.3850   57.0036 C   0  0  0  0  0  0  0  0  0  0  0  0
   32.4726   36.4716   57.8070 C   0  0  0  0  0  0  0  0  0  0  0  0
   32.1276   36.8260   59.1106 C   0  0  0  0  0  0  0  0  0  0  0  0
   31.4596   35.8848   60.0193 C   0  0  0  0  0  0  0  0  0  0  0  0
   31.1826   34.7537   59.6649 O   0  0  0  0  0  0  0  0  0  0  0  0
   31.1597   36.3239   61.2639 N   0  0  0  0  0  0  0  0  0  0  0  0
   30.5174   35.4668   62.1689 C   0  0  0  0  0  0  0  0  0  0  0  0
   31.1155   34.2682   62.5342 C   0  0  0  0  0  0  0  0  0  0  0  0
   30.4849   33.4271   63.4294 C   0  0  0  0  0  0  0  0  0  0  0  0
   29.2491   33.7738   63.9550 C   0  0  0  0  0  0  0  0  0  0  0  0
   28.6263   32.9424   64.8321 O   0  0  0  0  0  0  0  0  0  0  0  0
   27.3553   33.3628   65.3334 C   0  0  0  0  0  0  0  0  0  0  0  0
   28.6482   34.9691   63.5862 C   0  0  0  0  0  0  0  0  0  0  0  0
   29.2804   35.8137   62.6956 C   0  0  0  0  0  0  0  0  0  0  0  0
   34.0122   38.0598   66.7875 H   0  0  0  0  0  0  0  0  0  0  0  0
   34.4605   37.2661   65.1539 H   0  0  0  0  0  0  0  0  0  0  0  0
   31.1174   37.2016   67.1937 H   0  0  0  0  0  0  0  0  0  0  0  0
   31.8005   38.8421   67.0938 H   0  0  0  0  0  0  0  0  0  0  0  0
   30.5178   38.3419   65.9656 H   0  0  0  0  0  0  0  0  0  0  0  0
   31.4040   36.0250   64.4285 H   0  0  0  0  0  0  0  0  0  0  0  0
   32.9083   36.6072   63.6760 H   0  0  0  0  0  0  0  0  0  0  0  0
   33.2988   40.0270   59.0961 H   0  0  0  0  0  0  0  0  0  0  0  0
   33.8846   39.3652   56.8207 H   0  0  0  0  0  0  0  0  0  0  0  0
   33.3658   37.1125   55.9936 H   0  0  0  0  0  0  0  0  0  0  0  0
   32.2484   35.4830   57.4347 H   0  0  0  0  0  0  0  0  0  0  0  0
   32.0757   33.9960   62.1218 H   0  0  0  0  0  0  0  0  0  0  0  0
   30.9521   32.4968   63.7171 H   0  0  0  0  0  0  0  0  0  0  0  0
   26.9694   32.6105   66.0213 H   0  0  0  0  0  0  0  0  0  0  0  0
   27.4673   34.3115   65.8582 H   0  0  0  0  0  0  0  0  0  0  0  0
   26.6599   33.4868   64.5032 H   0  0  0  0  0  0  0  0  0  0  0  0
   27.6858   35.2386   63.9957 H   0  0  0  0  0  0  0  0  0  0  0  0
   28.8130   36.7441   62.4089 H   0  0  0  0  0  0  0  0  0  0  0  0
  1  2  2  0  0  0  0
  1 25  1  0  0  0  0
  1 26  1  0  0  0  0
  2  3  1  0  0  0  0
  2  4  1  0  0  0  0
  3 27  1  0  0  0  0
  3 28  1  0  0  0  0
  3 29  1  0  0  0  0
  4  5  1  0  0  0  0
  4 30  1  0  0  0  0
  4 31  1  0  0  0  0
  5  6  1  0  0  0  0
  6 16  1  0  0  0  0
  6  7  2  0  0  0  0
  7  8  1  0  0  0  0
  8 13  2  0  0  0  0
  8  9  1  0  0  0  0
  9 10  2  0  0  0  0
  9 32  1  0  0  0  0
 10 11  1  0  0  0  0
 10 33  1  0  0  0  0
 11 12  2  0  0  0  0
 11 34  1  0  0  0  0
 12 13  1  0  0  0  0
 12 35  1  0  0  0  0
 13 14  1  0  0  0  0
 14 15  2  0  0  0  0
 14 16  1  0  0  0  0
 16 17  1  0  0  0  0
 17 24  2  0  0  0  0
 17 18  1  0  0  0  0
 18 19  2  0  0  0  0
 18 36  1  0  0  0  0
 19 20  1  0  0  0  0
 19 37  1  0  0  0  0
 20 21  1  0  0  0  0
 20 23  2  0  0  0  0
 21 22  1  0  0  0  0
 22 38  1  0  0  0  0
 22 39  1  0  0  0  0
 22 40  1  0  0  0  0
 23 24  1  0  0  0  0
 23 41  1  0  0  0  0
 24 42  1  0  0  0  0
M  END
$$$$
