ZINC000000001097      none
 OpenBabel11202420153D

 34 36  0  0  0  0  0  0  0  0999 V2000
   26.3397   42.0955   67.8020 C   0  0  0  0  0  0  0  0  0  0  0  0
   27.6936   41.6128   67.5971 O   0  0  0  0  0  0  0  0  0  0  0  0
   27.8322   40.4293   66.9706 C   0  0  0  0  0  0  0  0  0  0  0  0
   26.8488   39.8165   66.6052 O   0  0  0  0  0  0  0  0  0  0  0  0
   29.0620   39.9240   66.7489 N   0  0  0  0  0  0  0  0  0  0  0  0
   29.2043   38.7091   66.1059 C   0  0  0  0  0  0  0  0  0  0  0  0
   29.9016   38.6254   64.9326 C   0  0  0  0  0  0  0  0  0  0  0  0
   30.0256   37.3823   64.3001 C   0  0  0  0  0  0  0  0  0  0  0  0
   30.7211   37.2764   63.1126 N   0  0  0  0  0  0  0  0  0  0  0  0
   31.3961   35.9761   63.0122 C   0  0  0  0  0  0  0  0  0  0  0  0
   32.0313   35.8226   61.6605 C   0  0  0  0  0  0  0  0  0  0  0  0
   31.7176   36.5587   60.6390 C   0  0  0  0  0  0  0  0  0  0  0  0
   30.6891   37.6527   60.7049 C   0  0  0  0  0  0  0  0  0  0  0  0
   29.8286   37.4765   61.9588 C   0  0  0  0  0  0  0  0  0  0  0  0
   29.4768   36.3049   64.8488 N   0  0  0  0  0  0  0  0  0  0  0  0
   28.8032   36.3878   65.9933 C   0  0  0  0  0  0  0  0  0  0  0  0
   28.1718   35.4614   66.7285 N   0  0  0  0  0  0  0  0  0  0  0  0
   27.6701   36.1126   67.7779 C   0  0  0  0  0  0  0  0  0  0  0  0
   27.0223   35.6216   68.6878 O   0  0  0  0  0  0  0  0  0  0  0  0
   28.0070   37.4064   67.6534 O   0  0  0  0  0  0  0  0  0  0  0  0
   28.6546   37.5775   66.6380 N   0  0  0  0  0  0  0  0  0  0  0  0
   25.8466   42.2152   66.8373 H   0  0  0  0  0  0  0  0  0  0  0  0
   25.7855   41.3774   68.4065 H   0  0  0  0  0  0  0  0  0  0  0  0
   26.3703   43.0562   68.3160 H   0  0  0  0  0  0  0  0  0  0  0  0
   29.8470   40.4133   67.0407 H   0  0  0  0  0  0  0  0  0  0  0  0
   30.3474   39.5074   64.4973 H   0  0  0  0  0  0  0  0  0  0  0  0
   32.1647   35.9081   63.7820 H   0  0  0  0  0  0  0  0  0  0  0  0
   30.6677   35.1790   63.1614 H   0  0  0  0  0  0  0  0  0  0  0  0
   32.7865   35.0614   61.5321 H   0  0  0  0  0  0  0  0  0  0  0  0
   32.2187   36.3771   59.6997 H   0  0  0  0  0  0  0  0  0  0  0  0
   30.0541   37.6072   59.8201 H   0  0  0  0  0  0  0  0  0  0  0  0
   31.1904   38.6199   60.7421 H   0  0  0  0  0  0  0  0  0  0  0  0
   29.2222   38.3686   62.1152 H   0  0  0  0  0  0  0  0  0  0  0  0
   29.1799   36.6089   61.8388 H   0  0  0  0  0  0  0  0  0  0  0  0
  1  2  1  0  0  0  0
  1 22  1  0  0  0  0
  1 23  1  0  0  0  0
  1 24  1  0  0  0  0
  2  3  1  0  0  0  0
  3  4  2  0  0  0  0
  3  5  1  0  0  0  0
  5  6  1  0  0  0  0
  5 25  1  0  0  0  0
  6 21  1  0  0  0  0
  6  7  2  0  0  0  0
  7  8  1  0  0  0  0
  7 26  1  0  0  0  0
  8  9  1  0  0  0  0
  8 15  2  0  0  0  0
  9 14  1  0  0  0  0
  9 10  1  0  0  0  0
 10 11  1  0  0  0  0
 10 27  1  0  0  0  0
 10 28  1  0  0  0  0
 11 12  2  0  0  0  0
 11 29  1  0  0  0  0
 12 13  1  0  0  0  0
 12 30  1  0  0  0  0
 13 14  1  0  0  0  0
 13 31  1  0  0  0  0
 13 32  1  0  0  0  0
 14 33  1  0  0  0  0
 14 34  1  0  0  0  0
 15 16  1  0  0  0  0
 16 21  1  0  0  0  0
 16 17  2  0  0  0  0
 17 18  1  0  0  0  0
 18 19  2  0  0  0  0
 18 20  1  0  0  0  0
 20 21  1  0  0  0  0
M  END
$$$$
