ZINC000000054390      none
 OpenBabel11202420153D

 45 47  0  0  1  0  0  0  0  0999 V2000
   30.6686   32.9438   63.0709 C   0  0  0  0  0  0  0  0  0  0  0  0
   31.1343   33.2539   61.7561 O   0  0  0  0  0  0  0  0  0  0  0  0
   31.4414   34.5469   61.5021 C   0  0  0  0  0  0  0  0  0  0  0  0
   31.3095   35.4600   62.4564 N   0  0  0  0  0  0  0  0  0  0  0  0
   31.6117   36.7301   62.2065 C   0  0  0  0  0  0  0  0  0  0  0  0
   31.4755   37.6803   63.1980 N   0  0  0  0  0  0  0  0  0  0  0  0
   30.1672   38.3421   63.1165 C   0  0  0  0  0  0  0  0  0  0  0  0
   30.1074   39.4839   64.1336 C   0  0  0  0  0  0  0  0  0  0  0  0
   30.3281   38.9202   65.5399 C   0  0  0  0  0  0  0  0  0  0  0  0
   31.6755   38.1944   65.5847 C   0  0  0  0  0  0  0  0  0  0  0  0
   31.6900   37.0900   64.5255 C   0  0  2  0  0  0  0  0  0  0  0  0
   30.8962   36.3735   64.7370 H   0  0  0  0  0  0  0  0  0  0  0  0
   33.0422   36.3748   64.5530 C   0  0  0  0  0  0  0  0  0  0  0  0
   32.0457   37.0845   61.0005 N   0  0  0  0  0  0  0  0  0  0  0  0
   32.1768   36.1705   60.0480 C   0  0  0  0  0  0  0  0  0  0  0  0
   32.6319   36.5420   58.7835 N   0  0  0  0  0  0  0  0  0  0  0  0
   32.8265   35.6947   57.6841 N   0  0  0  0  0  0  0  0  0  0  0  0
   33.2499   36.3970   56.6921 N   0  0  0  0  0  0  0  0  0  0  0  0
   33.3635   37.6860   57.0661 C   0  0  0  0  0  0  0  0  0  0  0  0
   33.8220   38.7916   56.2165 C   0  0  0  0  0  0  0  0  0  0  0  0
   34.2166   38.5289   54.7860 C   0  0  0  0  0  0  0  0  0  0  0  0
   33.8833   39.9166   56.6658 O   0  0  0  0  0  0  0  0  0  0  0  0
   32.9754   37.7872   58.3854 C   0  0  0  0  0  0  0  0  0  0  0  0
   32.9409   39.0414   59.2203 C   0  0  0  0  0  0  0  0  0  0  0  0
   31.8797   34.9014   60.2997 N   0  0  0  0  0  0  0  0  0  0  0  0
   29.7579   33.5067   63.2761 H   0  0  0  0  0  0  0  0  0  0  0  0
   31.4333   33.2118   63.7999 H   0  0  0  0  0  0  0  0  0  0  0  0
   30.4590   31.8763   63.1398 H   0  0  0  0  0  0  0  0  0  0  0  0
   30.0245   38.7421   62.1125 H   0  0  0  0  0  0  0  0  0  0  0  0
   29.3805   37.6199   63.3347 H   0  0  0  0  0  0  0  0  0  0  0  0
   30.8850   40.2136   63.9076 H   0  0  0  0  0  0  0  0  0  0  0  0
   29.1305   39.9652   64.0835 H   0  0  0  0  0  0  0  0  0  0  0  0
   30.3295   39.7358   66.2633 H   0  0  0  0  0  0  0  0  0  0  0  0
   29.5282   38.2205   65.7816 H   0  0  0  0  0  0  0  0  0  0  0  0
   32.4779   38.9038   65.3817 H   0  0  0  0  0  0  0  0  0  0  0  0
   31.8195   37.7549   66.5717 H   0  0  0  0  0  0  0  0  0  0  0  0
   33.8251   37.0659   64.2401 H   0  0  0  0  0  0  0  0  0  0  0  0
   33.2485   36.0264   65.5650 H   0  0  0  0  0  0  0  0  0  0  0  0
   33.0167   35.5230   63.8734 H   0  0  0  0  0  0  0  0  0  0  0  0
   33.3656   38.1160   54.2443 H   0  0  0  0  0  0  0  0  0  0  0  0
   34.5270   39.4628   54.3174 H   0  0  0  0  0  0  0  0  0  0  0  0
   35.0425   37.8181   54.7615 H   0  0  0  0  0  0  0  0  0  0  0  0
   33.9009   39.1720   59.7197 H   0  0  0  0  0  0  0  0  0  0  0  0
   32.7456   39.9001   58.5782 H   0  0  0  0  0  0  0  0  0  0  0  0
   32.1511   38.9591   59.9671 H   0  0  0  0  0  0  0  0  0  0  0  0
  1  2  1  0  0  0  0
  1 26  1  0  0  0  0
  1 27  1  0  0  0  0
  1 28  1  0  0  0  0
  2  3  1  0  0  0  0
  3 25  2  0  0  0  0
  3  4  1  0  0  0  0
  4  5  2  0  0  0  0
  5  6  1  0  0  0  0
  5 14  1  0  0  0  0
  6 11  1  0  0  0  0
  6  7  1  0  0  0  0
  7  8  1  0  0  0  0
  7 29  1  0  0  0  0
  7 30  1  0  0  0  0
  8  9  1  0  0  0  0
  8 31  1  0  0  0  0
  8 32  1  0  0  0  0
  9 10  1  0  0  0  0
  9 33  1  0  0  0  0
  9 34  1  0  0  0  0
 10 11  1  0  0  0  0
 10 35  1  0  0  0  0
 10 36  1  0  0  0  0
 11 12  1  1  0  0  0
 11 13  1  0  0  0  0
 13 37  1  0  0  0  0
 13 38  1  0  0  0  0
 13 39  1  0  0  0  0
 14 15  2  0  0  0  0
 15 16  1  0  0  0  0
 15 25  1  0  0  0  0
 16 23  1  0  0  0  0
 16 17  1  0  0  0  0
 17 18  2  0  0  0  0
 18 19  1  0  0  0  0
 19 20  1  0  0  0  0
 19 23  2  0  0  0  0
 20 21  1  0  0  0  0
 20 22  2  0  0  0  0
 21 40  1  0  0  0  0
 21 41  1  0  0  0  0
 21 42  1  0  0  0  0
 23 24  1  0  0  0  0
 24 43  1  0  0  0  0
 24 44  1  0  0  0  0
 24 45  1  0  0  0  0
M  END
$$$$
