ZINC000000000602      none
 OpenBabel11202420153D

 26 26  0  0  0  0  0  0  0  0999 V2000
   30.7422   38.4241   62.1110 C   0  0  0  0  0  0  0  0  0  0  0  0
   31.5358   37.7479   60.9912 C   0  0  0  0  0  0  0  0  0  0  0  0
   32.5804   38.6197   60.5543 O   0  0  0  0  0  0  0  0  0  0  0  0
   32.9640   38.5200   59.2537 C   0  0  0  0  0  0  0  0  0  0  0  0
   33.4499   39.6349   58.5867 C   0  0  0  0  0  0  0  0  0  0  0  0
   33.8450   39.5329   57.2675 C   0  0  0  0  0  0  0  0  0  0  0  0
   33.7447   38.3168   56.6052 C   0  0  0  0  0  0  0  0  0  0  0  0
   34.1391   38.2142   55.2646 N   0  0  0  0  0  0  0  0  0  0  0  0
   34.6159   39.2961   54.6177 C   0  0  0  0  0  0  0  0  0  0  0  0
   35.0401   39.1858   53.1758 C   0  0  0  0  0  0  0  0  0  0  0  0
   34.7037   40.3588   55.1961 O   0  0  0  0  0  0  0  0  0  0  0  0
   33.2529   37.2025   57.2716 C   0  0  0  0  0  0  0  0  0  0  0  0
   32.8639   37.3044   58.5927 C   0  0  0  0  0  0  0  0  0  0  0  0
   30.3089   39.3527   61.7397 H   0  0  0  0  0  0  0  0  0  0  0  0
   29.9454   37.7592   62.4443 H   0  0  0  0  0  0  0  0  0  0  0  0
   31.4069   38.6420   62.9469 H   0  0  0  0  0  0  0  0  0  0  0  0
   30.8710   37.5300   60.1553 H   0  0  0  0  0  0  0  0  0  0  0  0
   31.9690   36.8191   61.3626 H   0  0  0  0  0  0  0  0  0  0  0  0
   33.5231   40.5821   59.1006 H   0  0  0  0  0  0  0  0  0  0  0  0
   34.2274   40.4001   56.7496 H   0  0  0  0  0  0  0  0  0  0  0  0
   34.0689   37.3645   54.8020 H   0  0  0  0  0  0  0  0  0  0  0  0
   34.1904   38.8703   52.5704 H   0  0  0  0  0  0  0  0  0  0  0  0
   35.3951   40.1553   52.8264 H   0  0  0  0  0  0  0  0  0  0  0  0
   35.8414   38.4522   53.0881 H   0  0  0  0  0  0  0  0  0  0  0  0
   33.1742   36.2563   56.7569 H   0  0  0  0  0  0  0  0  0  0  0  0
   32.4814   36.4377   59.1112 H   0  0  0  0  0  0  0  0  0  0  0  0
  1  2  1  0  0  0  0
  1 14  1  0  0  0  0
  1 15  1  0  0  0  0
  1 16  1  0  0  0  0
  2  3  1  0  0  0  0
  2 17  1  0  0  0  0
  2 18  1  0  0  0  0
  3  4  1  0  0  0  0
  4 13  2  0  0  0  0
  4  5  1  0  0  0  0
  5  6  2  0  0  0  0
  5 19  1  0  0  0  0
  6  7  1  0  0  0  0
  6 20  1  0  0  0  0
  7  8  1  0  0  0  0
  7 12  2  0  0  0  0
  8  9  1  0  0  0  0
  8 21  1  0  0  0  0
  9 10  1  0  0  0  0
  9 11  2  0  0  0  0
 10 22  1  0  0  0  0
 10 23  1  0  0  0  0
 10 24  1  0  0  0  0
 12 13  1  0  0  0  0
 12 25  1  0  0  0  0
 13 26  1  0  0  0  0
M  END
$$$$
