ZINC000000030416      none
 OpenBabel11202420163D

 46 48  0  0  0  0  0  0  0  0999 V2000
   29.7355   34.7590   67.1826 C   0  0  0  0  0  0  0  0  0  0  0  0
   31.0565   34.9146   66.6606 O   0  0  0  0  0  0  0  0  0  0  0  0
   31.5020   36.1833   66.4802 C   0  0  0  0  0  0  0  0  0  0  0  0
   32.1689   36.8375   67.5004 C   0  0  0  0  0  0  0  0  0  0  0  0
   32.6225   38.1376   67.3094 C   0  0  0  0  0  0  0  0  0  0  0  0
   33.4721   38.9712   68.6085 S   0  0  0  0  0  0  0  0  0  0  0  0
   32.4241   40.4191   68.9185 C   0  0  0  0  0  0  0  0  0  0  0  0
   32.4070   38.7846   66.0929 C   0  0  0  0  0  0  0  0  0  0  0  0
   31.7503   38.1480   65.0805 C   0  0  0  0  0  0  0  0  0  0  0  0
   31.2880   36.8390   65.2573 C   0  0  0  0  0  0  0  0  0  0  0  0
   30.5801   36.1521   64.1650 C   0  0  0  0  0  0  0  0  0  0  0  0
   29.4390   35.7640   64.3291 O   0  0  0  0  0  0  0  0  0  0  0  0
   31.1960   35.9531   62.9828 N   0  0  0  0  0  0  0  0  0  0  0  0
   30.5089   35.2635   61.8803 C   0  0  0  0  0  0  0  0  0  0  0  0
   30.6267   36.1341   60.6192 C   0  0  0  0  0  0  0  0  0  0  0  0
   32.0421   36.4410   60.3729 N   0  0  0  0  0  0  0  0  0  0  0  0
   32.2078   37.0889   59.1467 C   0  0  0  0  0  0  0  0  0  0  0  0
   31.5797   38.3054   58.9117 C   0  0  0  0  0  0  0  0  0  0  0  0
   31.7496   38.9457   57.6999 C   0  0  0  0  0  0  0  0  0  0  0  0
   32.5355   38.3721   56.7172 C   0  0  0  0  0  0  0  0  0  0  0  0
   33.1579   37.1586   56.9461 C   0  0  0  0  0  0  0  0  0  0  0  0
   32.9965   36.5156   58.1574 C   0  0  0  0  0  0  0  0  0  0  0  0
   32.6139   37.2344   61.4692 C   0  0  0  0  0  0  0  0  0  0  0  0
   32.5752   36.4144   62.7630 C   0  0  0  0  0  0  0  0  0  0  0  0
   29.0201   35.2271   66.5065 H   0  0  0  0  0  0  0  0  0  0  0  0
   29.5049   33.6979   67.2775 H   0  0  0  0  0  0  0  0  0  0  0  0
   29.6735   35.2332   68.1621 H   0  0  0  0  0  0  0  0  0  0  0  0
   32.3374   36.3391   68.4435 H   0  0  0  0  0  0  0  0  0  0  0  0
   32.8599   41.0185   69.7177 H   0  0  0  0  0  0  0  0  0  0  0  0
   32.3553   41.0186   68.0108 H   0  0  0  0  0  0  0  0  0  0  0  0
   31.4277   40.0899   69.2130 H   0  0  0  0  0  0  0  0  0  0  0  0
   32.7578   39.7964   65.9529 H   0  0  0  0  0  0  0  0  0  0  0  0
   31.5866   38.6552   64.1412 H   0  0  0  0  0  0  0  0  0  0  0  0
   30.9775   34.2951   61.7055 H   0  0  0  0  0  0  0  0  0  0  0  0
   29.4579   35.1244   62.1339 H   0  0  0  0  0  0  0  0  0  0  0  0
   30.0728   37.0620   60.7613 H   0  0  0  0  0  0  0  0  0  0  0  0
   30.2181   35.5931   59.7658 H   0  0  0  0  0  0  0  0  0  0  0  0
   30.9623   38.7518   59.6772 H   0  0  0  0  0  0  0  0  0  0  0  0
   31.2648   39.8935   57.5180 H   0  0  0  0  0  0  0  0  0  0  0  0
   32.6637   38.8731   55.7691 H   0  0  0  0  0  0  0  0  0  0  0  0
   33.7712   36.7134   56.1765 H   0  0  0  0  0  0  0  0  0  0  0  0
   33.4827   35.5677   58.3354 H   0  0  0  0  0  0  0  0  0  0  0  0
   32.0322   38.1470   61.5994 H   0  0  0  0  0  0  0  0  0  0  0  0
   33.6463   37.4914   61.2320 H   0  0  0  0  0  0  0  0  0  0  0  0
   32.8910   37.0365   63.6004 H   0  0  0  0  0  0  0  0  0  0  0  0
   33.2387   35.5544   62.6714 H   0  0  0  0  0  0  0  0  0  0  0  0
  1  2  1  0  0  0  0
  1 25  1  0  0  0  0
  1 26  1  0  0  0  0
  1 27  1  0  0  0  0
  2  3  1  0  0  0  0
  3 10  2  0  0  0  0
  3  4  1  0  0  0  0
  4  5  2  0  0  0  0
  4 28  1  0  0  0  0
  5  6  1  0  0  0  0
  5  8  1  0  0  0  0
  6  7  1  0  0  0  0
  7 29  1  0  0  0  0
  7 30  1  0  0  0  0
  7 31  1  0  0  0  0
  8  9  2  0  0  0  0
  8 32  1  0  0  0  0
  9 10  1  0  0  0  0
  9 33  1  0  0  0  0
 10 11  1  0  0  0  0
 11 12  2  0  0  0  0
 11 13  1  0  0  0  0
 13 24  1  0  0  0  0
 13 14  1  0  0  0  0
 14 15  1  0  0  0  0
 14 34  1  0  0  0  0
 14 35  1  0  0  0  0
 15 16  1  0  0  0  0
 15 36  1  0  0  0  0
 15 37  1  0  0  0  0
 16 17  1  0  0  0  0
 16 23  1  0  0  0  0
 17 22  2  0  0  0  0
 17 18  1  0  0  0  0
 18 19  2  0  0  0  0
 18 38  1  0  0  0  0
 19 20  1  0  0  0  0
 19 39  1  0  0  0  0
 20 21  2  0  0  0  0
 20 40  1  0  0  0  0
 21 22  1  0  0  0  0
 21 41  1  0  0  0  0
 22 42  1  0  0  0  0
 23 24  1  0  0  0  0
 23 43  1  0  0  0  0
 23 44  1  0  0  0  0
 24 45  1  0  0  0  0
 24 46  1  0  0  0  0
M  END
$$$$
