ZINC000000000437      none
 OpenBabel11202420153D

 33 33  0  0  1  0  0  0  0  0999 V2000
   33.6996   36.6921   55.1861 C   0  0  0  0  0  0  0  0  0  0  0  0
   33.3093   36.8850   56.6288 C   0  0  0  0  0  0  0  0  0  0  0  0
   33.4401   38.1287   57.2187 C   0  0  0  0  0  0  0  0  0  0  0  0
   33.0830   38.3081   58.5411 C   0  0  0  0  0  0  0  0  0  0  0  0
   33.2253   39.6640   59.1833 C   0  0  0  0  0  0  0  0  0  0  0  0
   32.5928   37.2393   59.2772 C   0  0  0  0  0  0  0  0  0  0  0  0
   32.2408   37.4133   60.5782 O   0  0  0  0  0  0  0  0  0  0  0  0
   30.8877   37.7919   60.8392 C   0  0  0  0  0  0  0  0  0  0  0  0
   30.4580   37.2425   62.2009 C   0  0  2  0  0  0  0  0  0  0  0  0
   29.5944   37.8010   62.5620 H   0  0  0  0  0  0  0  0  0  0  0  0
   31.5350   37.3773   63.1304 O   0  0  0  0  0  0  0  0  0  0  0  0
   30.0875   35.7646   62.0607 C   0  0  0  0  0  0  0  0  0  0  0  0
   29.2671   35.3726   63.1632 O   0  0  0  0  0  0  0  0  0  0  0  0
   32.4679   35.9912   58.6846 C   0  0  0  0  0  0  0  0  0  0  0  0
   31.9417   34.8265   59.4831 C   0  0  0  0  0  0  0  0  0  0  0  0
   32.8205   35.8183   57.3601 C   0  0  0  0  0  0  0  0  0  0  0  0
   34.7502   36.4071   55.1289 H   0  0  0  0  0  0  0  0  0  0  0  0
   33.0856   35.9067   54.7455 H   0  0  0  0  0  0  0  0  0  0  0  0
   33.5454   37.6230   54.6403 H   0  0  0  0  0  0  0  0  0  0  0  0
   33.8215   38.9606   56.6452 H   0  0  0  0  0  0  0  0  0  0  0  0
   34.2160   39.7527   59.6291 H   0  0  0  0  0  0  0  0  0  0  0  0
   33.0961   40.4392   58.4281 H   0  0  0  0  0  0  0  0  0  0  0  0
   32.4668   39.7808   59.9574 H   0  0  0  0  0  0  0  0  0  0  0  0
   30.8092   38.8791   60.8448 H   0  0  0  0  0  0  0  0  0  0  0  0
   30.2402   37.3849   60.0625 H   0  0  0  0  0  0  0  0  0  0  0  0
   31.3330   37.0484   64.0169 H   0  0  0  0  0  0  0  0  0  0  0  0
   29.5412   35.6138   61.1296 H   0  0  0  0  0  0  0  0  0  0  0  0
   30.9954   35.1617   62.0510 H   0  0  0  0  0  0  0  0  0  0  0  0
   29.6903   35.4801   64.0259 H   0  0  0  0  0  0  0  0  0  0  0  0
   30.8571   34.7794   59.3853 H   0  0  0  0  0  0  0  0  0  0  0  0
   32.3807   33.9016   59.1091 H   0  0  0  0  0  0  0  0  0  0  0  0
   32.2065   34.9561   60.5324 H   0  0  0  0  0  0  0  0  0  0  0  0
   32.7187   34.8481   56.8968 H   0  0  0  0  0  0  0  0  0  0  0  0
  1  2  1  0  0  0  0
  1 17  1  0  0  0  0
  1 18  1  0  0  0  0
  1 19  1  0  0  0  0
  2 16  2  0  0  0  0
  2  3  1  0  0  0  0
  3  4  2  0  0  0  0
  3 20  1  0  0  0  0
  4  5  1  0  0  0  0
  4  6  1  0  0  0  0
  5 21  1  0  0  0  0
  5 22  1  0  0  0  0
  5 23  1  0  0  0  0
  6  7  1  0  0  0  0
  6 14  2  0  0  0  0
  7  8  1  0  0  0  0
  8  9  1  0  0  0  0
  8 24  1  0  0  0  0
  8 25  1  0  0  0  0
  9 10  1  1  0  0  0
  9 11  1  0  0  0  0
  9 12  1  0  0  0  0
 11 26  1  0  0  0  0
 12 13  1  0  0  0  0
 12 27  1  0  0  0  0
 12 28  1  0  0  0  0
 13 29  1  0  0  0  0
 14 15  1  0  0  0  0
 14 16  1  0  0  0  0
 15 30  1  0  0  0  0
 15 31  1  0  0  0  0
 15 32  1  0  0  0  0
 16 33  1  0  0  0  0
M  END
$$$$
