ZINC000000034747      none
 OpenBabel11202420153D

 44 47  0  0  1  0  0  0  0  0999 V2000
   32.1740   33.0339   59.9088 C   0  0  0  0  0  0  0  0  0  0  0  0
   31.9465   34.4919   60.2146 C   0  0  0  0  0  0  0  0  0  0  0  0
   31.8307   35.4045   59.1817 C   0  0  0  0  0  0  0  0  0  0  0  0
   31.6216   36.7431   59.4577 C   0  0  0  0  0  0  0  0  0  0  0  0
   31.5221   37.1726   60.7667 C   0  0  0  0  0  0  0  0  0  0  0  0
   31.6431   36.2597   61.8066 C   0  0  0  0  0  0  0  0  0  0  0  0
   31.5478   36.6913   63.1320 N   0  0  0  0  0  0  0  0  0  0  0  0
   30.5612   36.1831   63.9545 C   0  0  0  0  0  0  0  0  0  0  0  0
   29.7143   35.2928   63.4826 N   0  0  0  0  0  0  0  0  0  0  0  0
   28.7590   34.8005   64.2819 C   0  0  0  0  0  0  0  0  0  0  0  0
   27.7725   33.9403   64.1937 N   0  0  0  0  0  0  0  0  0  0  0  0
   27.2042   33.8769   65.2641 O   0  0  0  0  0  0  0  0  0  0  0  0
   27.6419   34.5840   66.1478 N   0  0  0  0  0  0  0  0  0  0  0  0
   28.6650   35.2633   65.6872 C   0  0  0  0  0  0  0  0  0  0  0  0
   29.5364   36.1705   66.1475 N   0  0  0  0  0  0  0  0  0  0  0  0
   30.4678   36.6418   65.3462 C   0  0  0  0  0  0  0  0  0  0  0  0
   31.3668   37.5770   65.8191 N   0  0  0  0  0  0  0  0  0  0  0  0
   31.6806   37.3371   67.2334 C   0  0  0  0  0  0  0  0  0  0  0  0
   32.7843   38.2976   67.6825 C   0  0  0  0  0  0  0  0  0  0  0  0
   32.3112   39.7401   67.4829 C   0  0  1  0  0  0  0  0  0  0  0  0
   33.4318   40.7057   67.8734 C   0  0  0  0  0  0  0  0  0  0  0  0
   31.9448   39.9497   66.0110 C   0  0  0  0  0  0  0  0  0  0  0  0
   30.8655   38.9414   65.6104 C   0  0  0  0  0  0  0  0  0  0  0  0
   31.8532   34.9152   61.5255 C   0  0  0  0  0  0  0  0  0  0  0  0
   31.2130   32.5287   59.8125 H   0  0  0  0  0  0  0  0  0  0  0  0
   32.7286   32.9408   58.9751 H   0  0  0  0  0  0  0  0  0  0  0  0
   32.7448   32.5778   60.7176 H   0  0  0  0  0  0  0  0  0  0  0  0
   31.9044   35.0708   58.1572 H   0  0  0  0  0  0  0  0  0  0  0  0
   31.5317   37.4531   58.6488 H   0  0  0  0  0  0  0  0  0  0  0  0
   31.3545   38.2176   60.9815 H   0  0  0  0  0  0  0  0  0  0  0  0
   32.1744   37.3476   63.4746 H   0  0  0  0  0  0  0  0  0  0  0  0
   30.7878   37.5024   67.8366 H   0  0  0  0  0  0  0  0  0  0  0  0
   32.0197   36.3091   67.3609 H   0  0  0  0  0  0  0  0  0  0  0  0
   33.6818   38.1235   67.0891 H   0  0  0  0  0  0  0  0  0  0  0  0
   33.0061   38.1298   68.7364 H   0  0  0  0  0  0  0  0  0  0  0  0
   31.4365   39.9261   68.1061 H   0  0  0  0  0  0  0  0  0  0  0  0
   33.0951   41.7318   67.7258 H   0  0  0  0  0  0  0  0  0  0  0  0
   33.6920   40.5558   68.9212 H   0  0  0  0  0  0  0  0  0  0  0  0
   34.3069   40.5176   67.2513 H   0  0  0  0  0  0  0  0  0  0  0  0
   32.8290   39.8017   65.3913 H   0  0  0  0  0  0  0  0  0  0  0  0
   31.5666   40.9624   65.8708 H   0  0  0  0  0  0  0  0  0  0  0  0
   30.6125   39.0786   64.5591 H   0  0  0  0  0  0  0  0  0  0  0  0
   29.9766   39.0991   66.2213 H   0  0  0  0  0  0  0  0  0  0  0  0
   31.9440   34.2021   62.3316 H   0  0  0  0  0  0  0  0  0  0  0  0
  1  2  1  0  0  0  0
  1 25  1  0  0  0  0
  1 26  1  0  0  0  0
  1 27  1  0  0  0  0
  2 24  2  0  0  0  0
  2  3  1  0  0  0  0
  3  4  2  0  0  0  0
  3 28  1  0  0  0  0
  4  5  1  0  0  0  0
  4 29  1  0  0  0  0
  5  6  2  0  0  0  0
  5 30  1  0  0  0  0
  6  7  1  0  0  0  0
  6 24  1  0  0  0  0
  7  8  1  0  0  0  0
  7 31  1  0  0  0  0
  8 16  1  0  0  0  0
  8  9  2  0  0  0  0
  9 10  1  0  0  0  0
 10 14  1  0  0  0  0
 10 11  2  0  0  0  0
 11 12  1  0  0  0  0
 12 13  1  0  0  0  0
 13 14  2  0  0  0  0
 14 15  1  0  0  0  0
 15 16  2  0  0  0  0
 16 17  1  0  0  0  0
 17 23  1  0  0  0  0
 17 18  1  0  0  0  0
 18 19  1  0  0  0  0
 18 32  1  0  0  0  0
 18 33  1  0  0  0  0
 19 20  1  0  0  0  0
 19 34  1  0  0  0  0
 19 35  1  0  0  0  0
 20 21  1  0  0  0  0
 20 22  1  0  0  0  0
 20 36  1  1  0  0  0
 21 37  1  0  0  0  0
 21 38  1  0  0  0  0
 21 39  1  0  0  0  0
 22 23  1  0  0  0  0
 22 40  1  0  0  0  0
 22 41  1  0  0  0  0
 23 42  1  0  0  0  0
 23 43  1  0  0  0  0
 24 44  1  0  0  0  0
M  END
$$$$
