ZINC000000042138      none
 OpenBabel11202420153D

 49 51  0  0  0  0  0  0  0  0999 V2000
   29.9628   33.0898   57.0437 C   0  0  0  0  0  0  0  0  0  0  0  0
   31.2873   32.3417   57.2077 C   0  0  0  0  0  0  0  0  0  0  0  0
   32.3910   33.2027   56.7756 N   0  0  0  0  0  0  0  0  0  0  0  0
   33.2618   32.7808   55.6756 C   0  0  0  0  0  0  0  0  0  0  0  0
   32.6884   33.2844   54.3495 C   0  0  0  0  0  0  0  0  0  0  0  0
   32.6106   34.4112   57.4049 C   0  0  0  0  0  0  0  0  0  0  0  0
   32.2901   34.5611   58.6864 N   0  0  0  0  0  0  0  0  0  0  0  0
   32.4960   35.7270   59.2909 C   0  0  0  0  0  0  0  0  0  0  0  0
   32.1586   35.8844   60.6198 N   0  0  0  0  0  0  0  0  0  0  0  0
   31.0785   34.9631   61.0019 C   0  0  0  0  0  0  0  0  0  0  0  0
   30.7775   35.1287   62.4937 C   0  0  0  0  0  0  0  0  0  0  0  0
   30.4438   36.4939   62.7588 O   0  0  0  0  0  0  0  0  0  0  0  0
   31.4738   37.4187   62.3995 C   0  0  0  0  0  0  0  0  0  0  0  0
   31.7820   37.2762   60.9066 C   0  0  0  0  0  0  0  0  0  0  0  0
   33.0321   36.7398   58.6169 N   0  0  0  0  0  0  0  0  0  0  0  0
   33.3570   36.5883   57.3368 C   0  0  0  0  0  0  0  0  0  0  0  0
   33.9131   37.6398   56.6369 N   0  0  0  0  0  0  0  0  0  0  0  0
   33.5072   38.9297   57.2137 C   0  0  0  0  0  0  0  0  0  0  0  0
   34.1921   40.0637   56.4462 C   0  0  0  0  0  0  0  0  0  0  0  0
   33.8599   39.9625   55.0588 O   0  0  0  0  0  0  0  0  0  0  0  0
   34.2415   38.7188   54.4649 C   0  0  0  0  0  0  0  0  0  0  0  0
   33.5572   37.5712   55.2122 C   0  0  0  0  0  0  0  0  0  0  0  0
   33.1460   35.4241   56.7308 N   0  0  0  0  0  0  0  0  0  0  0  0
   29.9782   33.9937   57.6525 H   0  0  0  0  0  0  0  0  0  0  0  0
   29.8249   33.3594   55.9966 H   0  0  0  0  0  0  0  0  0  0  0  0
   29.1415   32.4491   57.3650 H   0  0  0  0  0  0  0  0  0  0  0  0
   31.2717   31.4378   56.5987 H   0  0  0  0  0  0  0  0  0  0  0  0
   31.4251   32.0721   58.2547 H   0  0  0  0  0  0  0  0  0  0  0  0
   34.2589   33.1964   55.8215 H   0  0  0  0  0  0  0  0  0  0  0  0
   33.3210   31.6926   55.6560 H   0  0  0  0  0  0  0  0  0  0  0  0
   31.6915   32.8687   54.2035 H   0  0  0  0  0  0  0  0  0  0  0  0
   32.6293   34.3725   54.3691 H   0  0  0  0  0  0  0  0  0  0  0  0
   33.3363   32.9704   53.5310 H   0  0  0  0  0  0  0  0  0  0  0  0
   31.3886   33.9369   60.8048 H   0  0  0  0  0  0  0  0  0  0  0  0
   30.1838   35.1910   60.4224 H   0  0  0  0  0  0  0  0  0  0  0  0
   29.9390   34.4890   62.7691 H   0  0  0  0  0  0  0  0  0  0  0  0
   31.6555   34.8485   63.0755 H   0  0  0  0  0  0  0  0  0  0  0  0
   31.1391   38.4350   62.6067 H   0  0  0  0  0  0  0  0  0  0  0  0
   32.3725   37.2056   62.9786 H   0  0  0  0  0  0  0  0  0  0  0  0
   30.8985   37.5412   60.3257 H   0  0  0  0  0  0  0  0  0  0  0  0
   32.6051   37.9390   60.6400 H   0  0  0  0  0  0  0  0  0  0  0  0
   32.4255   39.0390   57.1357 H   0  0  0  0  0  0  0  0  0  0  0  0
   33.8032   38.9689   58.2619 H   0  0  0  0  0  0  0  0  0  0  0  0
   35.2724   39.9854   56.5685 H   0  0  0  0  0  0  0  0  0  0  0  0
   33.8500   41.0237   56.8333 H   0  0  0  0  0  0  0  0  0  0  0  0
   35.3233   38.6013   54.5295 H   0  0  0  0  0  0  0  0  0  0  0  0
   33.9359   38.7054   53.4187 H   0  0  0  0  0  0  0  0  0  0  0  0
   33.8897   36.6186   54.7995 H   0  0  0  0  0  0  0  0  0  0  0  0
   32.4762   37.6587   55.1024 H   0  0  0  0  0  0  0  0  0  0  0  0
  1  2  1  0  0  0  0
  1 24  1  0  0  0  0
  1 25  1  0  0  0  0
  1 26  1  0  0  0  0
  2  3  1  0  0  0  0
  2 27  1  0  0  0  0
  2 28  1  0  0  0  0
  3  4  1  0  0  0  0
  3  6  1  0  0  0  0
  4  5  1  0  0  0  0
  4 29  1  0  0  0  0
  4 30  1  0  0  0  0
  5 31  1  0  0  0  0
  5 32  1  0  0  0  0
  5 33  1  0  0  0  0
  6 23  2  0  0  0  0
  6  7  1  0  0  0  0
  7  8  2  0  0  0  0
  8  9  1  0  0  0  0
  8 15  1  0  0  0  0
  9 14  1  0  0  0  0
  9 10  1  0  0  0  0
 10 11  1  0  0  0  0
 10 34  1  0  0  0  0
 10 35  1  0  0  0  0
 11 12  1  0  0  0  0
 11 36  1  0  0  0  0
 11 37  1  0  0  0  0
 12 13  1  0  0  0  0
 13 14  1  0  0  0  0
 13 38  1  0  0  0  0
 13 39  1  0  0  0  0
 14 40  1  0  0  0  0
 14 41  1  0  0  0  0
 15 16  2  0  0  0  0
 16 17  1  0  0  0  0
 16 23  1  0  0  0  0
 17 22  1  0  0  0  0
 17 18  1  0  0  0  0
 18 19  1  0  0  0  0
 18 42  1  0  0  0  0
 18 43  1  0  0  0  0
 19 20  1  0  0  0  0
 19 44  1  0  0  0  0
 19 45  1  0  0  0  0
 20 21  1  0  0  0  0
 21 22  1  0  0  0  0
 21 46  1  0  0  0  0
 21 47  1  0  0  0  0
 22 48  1  0  0  0  0
 22 49  1  0  0  0  0
M  END
$$$$
