ZINC000000005710      none
 OpenBabel11202420153D

 24 25  0  0  0  0  0  0  0  0999 V2000
   30.2151   32.5234   57.0549 C   0  0  0  0  0  0  0  0  0  0  0  0
   30.9726   32.8146   58.3247 C   0  0  0  0  0  0  0  0  0  0  0  0
   30.7812   32.2299   59.4755 N   0  0  0  0  0  0  0  0  0  0  0  0
   31.6322   32.7404   60.3779 C   0  0  0  0  0  0  0  0  0  0  0  0
   32.3833   33.6727   59.7614 C   0  0  0  0  0  0  0  0  0  0  0  0
   31.9612   33.7244   58.4604 N   0  0  0  0  0  0  0  0  0  0  0  0
   32.4880   34.5990   57.4097 C   0  0  0  0  0  0  0  0  0  0  0  0
   32.6382   35.9981   57.9491 C   0  0  0  0  0  0  0  0  0  0  0  0
   33.1220   36.9988   57.1274 C   0  0  0  0  0  0  0  0  0  0  0  0
   33.2559   38.2826   57.6333 C   0  0  0  0  0  0  0  0  0  0  0  0
   32.8966   38.5127   58.9528 C   0  0  0  0  0  0  0  0  0  0  0  0
   32.4260   37.4612   59.7158 C   0  0  0  0  0  0  0  0  0  0  0  0
   32.3063   36.2536   59.1994 N   0  0  0  0  0  0  0  0  0  0  0  0
   30.7260   31.7369   56.4994 H   0  0  0  0  0  0  0  0  0  0  0  0
   29.2048   32.1968   57.3011 H   0  0  0  0  0  0  0  0  0  0  0  0
   30.1668   33.4259   56.4455 H   0  0  0  0  0  0  0  0  0  0  0  0
   31.7058   32.4506   61.4157 H   0  0  0  0  0  0  0  0  0  0  0  0
   33.1664   34.2672   60.2084 H   0  0  0  0  0  0  0  0  0  0  0  0
   31.7994   34.6073   56.5647 H   0  0  0  0  0  0  0  0  0  0  0  0
   33.4599   34.2294   57.0827 H   0  0  0  0  0  0  0  0  0  0  0  0
   33.3918   36.7834   56.1041 H   0  0  0  0  0  0  0  0  0  0  0  0
   33.6307   39.0843   57.0145 H   0  0  0  0  0  0  0  0  0  0  0  0
   32.9879   39.5005   59.3800 H   0  0  0  0  0  0  0  0  0  0  0  0
   32.1487   37.6312   60.7457 H   0  0  0  0  0  0  0  0  0  0  0  0
  1  2  1  0  0  0  0
  1 14  1  0  0  0  0
  1 15  1  0  0  0  0
  1 16  1  0  0  0  0
  2  6  1  0  0  0  0
  2  3  2  0  0  0  0
  3  4  1  0  0  0  0
  4  5  2  0  0  0  0
  4 17  1  0  0  0  0
  5  6  1  0  0  0  0
  5 18  1  0  0  0  0
  6  7  1  0  0  0  0
  7  8  1  0  0  0  0
  7 19  1  0  0  0  0
  7 20  1  0  0  0  0
  8 13  2  0  0  0  0
  8  9  1  0  0  0  0
  9 10  2  0  0  0  0
  9 21  1  0  0  0  0
 10 11  1  0  0  0  0
 10 22  1  0  0  0  0
 11 12  2  0  0  0  0
 11 23  1  0  0  0  0
 12 13  1  0  0  0  0
 12 24  1  0  0  0  0
M  END
$$$$
