ZINC000000050273      none
 OpenBabel11202420153D

 25 25  0  0  0  0  0  0  0  0999 V2000
   33.3956   39.3018   57.9264 C   0  0  0  0  0  0  0  0  0  0  0  0
   33.2519   37.9080   57.3717 C   0  0  0  0  0  0  0  0  0  0  0  0
   33.6258   37.6411   56.0679 C   0  0  0  0  0  0  0  0  0  0  0  0
   33.4939   36.3626   55.5590 C   0  0  0  0  0  0  0  0  0  0  0  0
   32.9881   35.3510   56.3540 C   0  0  0  0  0  0  0  0  0  0  0  0
   32.8195   33.7215   55.7052 S   0  0  0  0  0  0  0  0  0  0  0  0
   31.5844   33.6948   55.0033 O   0  0  0  0  0  0  0  0  0  0  0  0
   33.1281   32.8320   56.7695 O   0  0  0  0  0  0  0  0  0  0  0  0
   34.0075   33.5209   54.5690 N   0  0  0  0  0  0  0  0  0  0  0  0
   33.7492   33.8703   53.1698 C   0  0  0  0  0  0  0  0  0  0  0  0
   35.2593   33.0172   54.9456 N   0  0  0  0  0  0  0  0  0  0  0  0
   35.6882   33.2271   56.0661 O   0  0  0  0  0  0  0  0  0  0  0  0
   35.9186   32.3693   54.1526 O   0  0  0  0  0  0  0  0  0  0  0  0
   32.6093   35.6192   57.6561 C   0  0  0  0  0  0  0  0  0  0  0  0
   32.7465   36.8964   58.1667 C   0  0  0  0  0  0  0  0  0  0  0  0
   32.4796   39.8628   57.7414 H   0  0  0  0  0  0  0  0  0  0  0  0
   33.5787   39.2487   58.9996 H   0  0  0  0  0  0  0  0  0  0  0  0
   34.2327   39.8021   57.4395 H   0  0  0  0  0  0  0  0  0  0  0  0
   34.0206   38.4314   55.4467 H   0  0  0  0  0  0  0  0  0  0  0  0
   33.7857   36.1541   54.5404 H   0  0  0  0  0  0  0  0  0  0  0  0
   34.0166   34.9134   53.0004 H   0  0  0  0  0  0  0  0  0  0  0  0
   34.3472   33.2317   52.5194 H   0  0  0  0  0  0  0  0  0  0  0  0
   32.6917   33.7258   52.9484 H   0  0  0  0  0  0  0  0  0  0  0  0
   32.2100   34.8299   58.2757 H   0  0  0  0  0  0  0  0  0  0  0  0
   32.4548   37.1049   59.1855 H   0  0  0  0  0  0  0  0  0  0  0  0
  1  2  1  0  0  0  0
  1 16  1  0  0  0  0
  1 17  1  0  0  0  0
  1 18  1  0  0  0  0
  2 15  2  0  0  0  0
  2  3  1  0  0  0  0
  3  4  2  0  0  0  0
  3 19  1  0  0  0  0
  4  5  1  0  0  0  0
  4 20  1  0  0  0  0
  5  6  1  0  0  0  0
  5 14  2  0  0  0  0
  6  7  2  0  0  0  0
  6  8  2  0  0  0  0
  6  9  1  0  0  0  0
  9 10  1  0  0  0  0
  9 11  1  0  0  0  0
 10 21  1  0  0  0  0
 10 22  1  0  0  0  0
 10 23  1  0  0  0  0
 11 12  2  0  0  0  0
 11 13  2  0  0  0  0
 14 15  1  0  0  0  0
 14 24  1  0  0  0  0
 15 25  1  0  0  0  0
M  END
$$$$
