ZINC000000029530      none
 OpenBabel11202420163D

 29 30  0  0  0  0  0  0  0  0999 V2000
   31.0528   37.0821   59.3805 O   0  0  0  0  0  0  0  0  0  0  0  0
   32.2164   37.4298   59.3300 C   0  0  0  0  0  0  0  0  0  0  0  0
   32.9107   37.6279   60.4682 N   0  0  0  0  0  0  0  0  0  0  0  0
   32.2628   37.4239   61.7662 C   0  0  0  0  0  0  0  0  0  0  0  0
   31.7415   35.9760   61.8749 C   0  0  0  0  0  0  0  0  0  0  0  0
   30.4036   36.1117   62.6451 C   0  0  0  0  0  0  0  0  0  0  0  0
   29.8116   37.4245   62.0749 C   0  0  0  0  0  0  0  0  0  0  0  0
   31.0366   38.3446   61.8937 C   0  0  0  0  0  0  0  0  0  0  0  0
   32.8699   37.6356   58.0207 C   0  0  0  0  0  0  0  0  0  0  0  0
   32.9663   36.5806   57.1113 C   0  0  0  0  0  0  0  0  0  0  0  0
   33.5777   36.7792   55.8914 C   0  0  0  0  0  0  0  0  0  0  0  0
   34.0957   38.0212   55.5665 C   0  0  0  0  0  0  0  0  0  0  0  0
   34.0042   39.0712   56.4613 C   0  0  0  0  0  0  0  0  0  0  0  0
   33.3944   38.8868   57.6871 C   0  0  0  0  0  0  0  0  0  0  0  0
   33.2799   40.2060   58.8097 Cl  0  0  0  0  0  0  0  0  0  0  0  0
   33.8392   37.9054   60.4278 H   0  0  0  0  0  0  0  0  0  0  0  0
   32.9685   37.6281   62.5716 H   0  0  0  0  0  0  0  0  0  0  0  0
   31.5697   35.5571   60.8834 H   0  0  0  0  0  0  0  0  0  0  0  0
   32.4439   35.3587   62.4346 H   0  0  0  0  0  0  0  0  0  0  0  0
   30.5830   36.2022   63.7165 H   0  0  0  0  0  0  0  0  0  0  0  0
   29.7462   35.2681   62.4349 H   0  0  0  0  0  0  0  0  0  0  0  0
   29.1062   37.8631   62.7806 H   0  0  0  0  0  0  0  0  0  0  0  0
   29.3267   37.2418   61.1160 H   0  0  0  0  0  0  0  0  0  0  0  0
   31.1466   38.9950   62.7615 H   0  0  0  0  0  0  0  0  0  0  0  0
   30.9235   38.9432   60.9898 H   0  0  0  0  0  0  0  0  0  0  0  0
   32.5632   35.6108   57.3630 H   0  0  0  0  0  0  0  0  0  0  0  0
   33.6487   35.9648   55.1856 H   0  0  0  0  0  0  0  0  0  0  0  0
   34.5736   38.1704   54.6096 H   0  0  0  0  0  0  0  0  0  0  0  0
   34.4102   40.0376   56.2013 H   0  0  0  0  0  0  0  0  0  0  0  0
  1  2  2  0  0  0  0
  2  3  1  0  0  0  0
  2  9  1  0  0  0  0
  3  4  1  0  0  0  0
  3 16  1  0  0  0  0
  4  8  1  0  0  0  0
  4  5  1  0  0  0  0
  4 17  1  0  0  0  0
  5  6  1  0  0  0  0
  5 18  1  0  0  0  0
  5 19  1  0  0  0  0
  6  7  1  0  0  0  0
  6 20  1  0  0  0  0
  6 21  1  0  0  0  0
  7  8  1  0  0  0  0
  7 22  1  0  0  0  0
  7 23  1  0  0  0  0
  8 24  1  0  0  0  0
  8 25  1  0  0  0  0
  9 14  2  0  0  0  0
  9 10  1  0  0  0  0
 10 11  2  0  0  0  0
 10 26  1  0  0  0  0
 11 12  1  0  0  0  0
 11 27  1  0  0  0  0
 12 13  2  0  0  0  0
 12 28  1  0  0  0  0
 13 14  1  0  0  0  0
 13 29  1  0  0  0  0
 14 15  1  0  0  0  0
M  END
$$$$
