ZINC000000044284      none
 OpenBabel11202420153D

 40 42  0  0  0  0  0  0  0  0999 V2000
   32.3777   34.2206   54.1349 C   0  0  0  0  0  0  0  0  0  0  0  0
   32.6389   34.3696   55.6350 C   0  0  0  0  0  0  0  0  0  0  0  0
   32.7326   35.7787   55.9724 O   0  0  0  0  0  0  0  0  0  0  0  0
   32.9621   36.0845   57.2647 C   0  0  0  0  0  0  0  0  0  0  0  0
   33.0806   35.1977   58.0871 O   0  0  0  0  0  0  0  0  0  0  0  0
   33.0693   37.4935   57.6803 C   0  0  0  0  0  0  0  0  0  0  0  0
   33.5484   38.4561   56.7868 C   0  0  0  0  0  0  0  0  0  0  0  0
   33.6515   39.7708   57.1836 C   0  0  0  0  0  0  0  0  0  0  0  0
   33.2770   40.1477   58.4640 C   0  0  0  0  0  0  0  0  0  0  0  0
   32.7969   39.2112   59.3559 C   0  0  0  0  0  0  0  0  0  0  0  0
   32.6854   37.8796   58.9745 C   0  0  0  0  0  0  0  0  0  0  0  0
   32.2026   36.9351   59.8701 N   0  0  0  0  0  0  0  0  0  0  0  0
   31.8032   37.3423   61.2196 C   0  0  0  0  0  0  0  0  0  0  0  0
   31.3327   36.1715   61.9639 N   0  0  0  0  0  0  0  0  0  0  0  0
   31.7730   34.9160   61.7653 C   0  0  0  0  0  0  0  0  0  0  0  0
   32.6110   34.5787   60.9535 O   0  0  0  0  0  0  0  0  0  0  0  0
   31.0669   34.0156   62.7010 C   0  0  0  0  0  0  0  0  0  0  0  0
   31.1061   32.6528   62.9483 C   0  0  0  0  0  0  0  0  0  0  0  0
   30.2924   32.1088   63.9298 C   0  0  0  0  0  0  0  0  0  0  0  0
   29.4389   32.9152   64.6589 C   0  0  0  0  0  0  0  0  0  0  0  0
   29.3850   34.2794   64.4191 C   0  0  0  0  0  0  0  0  0  0  0  0
   30.1930   34.8373   63.4412 C   0  0  0  0  0  0  0  0  0  0  0  0
   30.3954   36.2087   62.9282 C   0  0  0  0  0  0  0  0  0  0  0  0
   29.8209   37.2042   63.3203 O   0  0  0  0  0  0  0  0  0  0  0  0
   31.4430   34.7187   53.8775 H   0  0  0  0  0  0  0  0  0  0  0  0
   33.1967   34.6741   53.5767 H   0  0  0  0  0  0  0  0  0  0  0  0
   32.3073   33.1627   53.8816 H   0  0  0  0  0  0  0  0  0  0  0  0
   33.5736   33.8715   55.8923 H   0  0  0  0  0  0  0  0  0  0  0  0
   31.8198   33.9161   56.1932 H   0  0  0  0  0  0  0  0  0  0  0  0
   33.8413   38.1682   55.7879 H   0  0  0  0  0  0  0  0  0  0  0  0
   34.0257   40.5124   56.4934 H   0  0  0  0  0  0  0  0  0  0  0  0
   33.3614   41.1814   58.7652 H   0  0  0  0  0  0  0  0  0  0  0  0
   32.5070   39.5132   60.3514 H   0  0  0  0  0  0  0  0  0  0  0  0
   32.1296   36.0056   59.6025 H   0  0  0  0  0  0  0  0  0  0  0  0
   31.0015   38.0780   61.1548 H   0  0  0  0  0  0  0  0  0  0  0  0
   32.6580   37.7809   61.7346 H   0  0  0  0  0  0  0  0  0  0  0  0
   31.7710   32.0178   62.3817 H   0  0  0  0  0  0  0  0  0  0  0  0
   30.3254   31.0471   64.1258 H   0  0  0  0  0  0  0  0  0  0  0  0
   28.8093   32.4793   65.4205 H   0  0  0  0  0  0  0  0  0  0  0  0
   28.7165   34.9047   64.9919 H   0  0  0  0  0  0  0  0  0  0  0  0
  1  2  1  0  0  0  0
  1 25  1  0  0  0  0
  1 26  1  0  0  0  0
  1 27  1  0  0  0  0
  2  3  1  0  0  0  0
  2 28  1  0  0  0  0
  2 29  1  0  0  0  0
  3  4  1  0  0  0  0
  4  5  2  0  0  0  0
  4  6  1  0  0  0  0
  6 11  2  0  0  0  0
  6  7  1  0  0  0  0
  7  8  2  0  0  0  0
  7 30  1  0  0  0  0
  8  9  1  0  0  0  0
  8 31  1  0  0  0  0
  9 10  2  0  0  0  0
  9 32  1  0  0  0  0
 10 11  1  0  0  0  0
 10 33  1  0  0  0  0
 11 12  1  0  0  0  0
 12 13  1  0  0  0  0
 12 34  1  0  0  0  0
 13 14  1  0  0  0  0
 13 35  1  0  0  0  0
 13 36  1  0  0  0  0
 14 23  1  0  0  0  0
 14 15  1  0  0  0  0
 15 16  2  0  0  0  0
 15 17  1  0  0  0  0
 17 22  2  0  0  0  0
 17 18  1  0  0  0  0
 18 19  2  0  0  0  0
 18 37  1  0  0  0  0
 19 20  1  0  0  0  0
 19 38  1  0  0  0  0
 20 21  2  0  0  0  0
 20 39  1  0  0  0  0
 21 22  1  0  0  0  0
 21 40  1  0  0  0  0
 22 23  1  0  0  0  0
 23 24  2  0  0  0  0
M  END
$$$$
