ZINC000000054221      none
 OpenBabel11202420153D

 31 33  0  0  0  0  0  0  0  0999 V2000
   34.5759   39.0268   54.8145 C   0  0  0  0  0  0  0  0  0  0  0  0
   34.2724   39.5150   56.1227 O   0  0  0  0  0  0  0  0  0  0  0  0
   33.7074   38.6375   56.9930 C   0  0  0  0  0  0  0  0  0  0  0  0
   33.3880   39.0485   58.2809 C   0  0  0  0  0  0  0  0  0  0  0  0
   32.8150   38.1637   59.1692 C   0  0  0  0  0  0  0  0  0  0  0  0
   32.5545   36.8504   58.7748 C   0  0  0  0  0  0  0  0  0  0  0  0
   31.9405   35.8993   59.7238 C   0  0  0  0  0  0  0  0  0  0  0  0
   31.6416   34.6364   59.4827 N   0  0  0  0  0  0  0  0  0  0  0  0
   31.1184   34.0976   60.5280 N   0  0  0  0  0  0  0  0  0  0  0  0
   31.0524   34.9905   61.5032 C   0  0  0  0  0  0  0  0  0  0  0  0
   30.5839   34.9513   62.8287 C   0  0  0  0  0  0  0  0  0  0  0  0
   30.6664   36.0752   63.5928 C   0  0  0  0  0  0  0  0  0  0  0  0
   31.2023   37.2555   63.0563 C   0  0  0  0  0  0  0  0  0  0  0  0
   31.2935   38.6801   64.0441 Cl  0  0  0  0  0  0  0  0  0  0  0  0
   31.6394   37.2965   61.8243 N   0  0  0  0  0  0  0  0  0  0  0  0
   31.5767   36.1634   61.0114 N   0  0  0  0  0  0  0  0  0  0  0  0
   32.8825   36.4360   57.4775 C   0  0  0  0  0  0  0  0  0  0  0  0
   32.6370   35.1580   57.0882 O   0  0  0  0  0  0  0  0  0  0  0  0
   33.6773   34.2026   57.3051 C   0  0  0  0  0  0  0  0  0  0  0  0
   33.4521   37.3343   56.5920 C   0  0  0  0  0  0  0  0  0  0  0  0
   35.0214   39.8263   54.2226 H   0  0  0  0  0  0  0  0  0  0  0  0
   35.2782   38.1965   54.8904 H   0  0  0  0  0  0  0  0  0  0  0  0
   33.6600   38.6849   54.3325 H   0  0  0  0  0  0  0  0  0  0  0  0
   33.5895   40.0644   58.5873 H   0  0  0  0  0  0  0  0  0  0  0  0
   32.5676   38.4865   60.1698 H   0  0  0  0  0  0  0  0  0  0  0  0
   30.1684   34.0415   63.2360 H   0  0  0  0  0  0  0  0  0  0  0  0
   30.3143   36.0593   64.6137 H   0  0  0  0  0  0  0  0  0  0  0  0
   33.3522   33.2246   56.9501 H   0  0  0  0  0  0  0  0  0  0  0  0
   34.5707   34.5082   56.7605 H   0  0  0  0  0  0  0  0  0  0  0  0
   33.9025   34.1461   58.3702 H   0  0  0  0  0  0  0  0  0  0  0  0
   33.7024   37.0190   55.5898 H   0  0  0  0  0  0  0  0  0  0  0  0
  1  2  1  0  0  0  0
  1 21  1  0  0  0  0
  1 22  1  0  0  0  0
  1 23  1  0  0  0  0
  2  3  1  0  0  0  0
  3 20  2  0  0  0  0
  3  4  1  0  0  0  0
  4  5  2  0  0  0  0
  4 24  1  0  0  0  0
  5  6  1  0  0  0  0
  5 25  1  0  0  0  0
  6  7  1  0  0  0  0
  6 17  2  0  0  0  0
  7 16  1  0  0  0  0
  7  8  2  0  0  0  0
  8  9  1  0  0  0  0
  9 10  2  0  0  0  0
 10 16  1  0  0  0  0
 10 11  1  0  0  0  0
 11 12  2  0  0  0  0
 11 26  1  0  0  0  0
 12 13  1  0  0  0  0
 12 27  1  0  0  0  0
 13 14  1  0  0  0  0
 13 15  2  0  0  0  0
 15 16  1  0  0  0  0
 17 18  1  0  0  0  0
 17 20  1  0  0  0  0
 18 19  1  0  0  0  0
 19 28  1  0  0  0  0
 19 29  1  0  0  0  0
 19 30  1  0  0  0  0
 20 31  1  0  0  0  0
M  END
$$$$
