ZINC000000044802      none
 OpenBabel11202420153D

 44 47  0  0  1  0  0  0  0  0999 V2000
   33.1762   35.4617   69.8850 C   0  0  0  0  0  0  0  0  0  0  0  0
   32.9880   36.0640   68.6029 O   0  0  0  0  0  0  0  0  0  0  0  0
   32.0642   35.4959   67.7840 C   0  0  0  0  0  0  0  0  0  0  0  0
   31.3529   34.3818   68.2060 C   0  0  0  0  0  0  0  0  0  0  0  0
   30.4141   33.8065   67.3720 C   0  0  0  0  0  0  0  0  0  0  0  0
   30.1828   34.3400   66.1172 C   0  0  0  0  0  0  0  0  0  0  0  0
   30.8865   35.4531   65.6965 C   0  0  0  0  0  0  0  0  0  0  0  0
   31.8303   36.0290   66.5249 C   0  0  0  0  0  0  0  0  0  0  0  0
   32.6007   37.2393   66.0636 C   0  0  1  0  0  0  0  0  0  0  0  0
   33.6663   37.0101   66.0594 H   0  0  0  0  0  0  0  0  0  0  0  0
   32.1623   37.6116   64.6696 C   0  0  0  0  0  0  0  0  0  0  0  0
   32.6409   36.8694   63.6010 C   0  0  0  0  0  0  0  0  0  0  0  0
   32.2502   37.1707   62.3087 C   0  0  0  0  0  0  0  0  0  0  0  0
   31.3752   38.2301   62.0795 C   0  0  0  0  0  0  0  0  0  0  0  0
   30.9040   38.9745   63.1458 C   0  0  0  0  0  0  0  0  0  0  0  0
   31.2998   38.6696   64.4440 C   0  0  0  0  0  0  0  0  0  0  0  0
   30.8197   39.4317   65.4623 O   0  0  0  0  0  0  0  0  0  0  0  0
   30.9001   38.8990   66.7879 C   0  0  1  0  0  0  0  0  0  0  0  0
   30.5631   39.9945   67.8014 C   0  0  0  0  0  0  0  0  0  0  0  0
   29.9875   37.8094   66.9356 O   0  0  0  0  0  0  0  0  0  0  0  0
   32.3346   38.4063   67.0174 C   0  0  2  0  0  0  0  0  0  0  0  0
   32.4474   38.0711   68.0485 H   0  0  0  0  0  0  0  0  0  0  0  0
   33.3218   39.5401   66.7331 C   0  0  0  0  0  0  0  0  0  0  0  0
   31.1444   38.3228   60.7372 O   0  0  0  0  0  0  0  0  0  0  0  0
   31.5614   37.0594   60.1868 C   0  0  0  0  0  0  0  0  0  0  0  0
   32.5677   36.6002   61.1087 O   0  0  0  0  0  0  0  0  0  0  0  0
   32.2381   35.4874   70.4396 H   0  0  0  0  0  0  0  0  0  0  0  0
   33.4947   34.4272   69.7573 H   0  0  0  0  0  0  0  0  0  0  0  0
   33.9391   36.0114   70.4361 H   0  0  0  0  0  0  0  0  0  0  0  0
   31.5334   33.9646   69.1857 H   0  0  0  0  0  0  0  0  0  0  0  0
   29.8600   32.9395   67.7002 H   0  0  0  0  0  0  0  0  0  0  0  0
   29.4484   33.8888   65.4667 H   0  0  0  0  0  0  0  0  0  0  0  0
   30.7011   35.8704   64.7178 H   0  0  0  0  0  0  0  0  0  0  0  0
   33.3195   36.0483   63.7790 H   0  0  0  0  0  0  0  0  0  0  0  0
   30.2259   39.7966   62.9697 H   0  0  0  0  0  0  0  0  0  0  0  0
   31.2552   40.8277   67.6795 H   0  0  0  0  0  0  0  0  0  0  0  0
   29.5434   40.3419   67.6353 H   0  0  0  0  0  0  0  0  0  0  0  0
   30.6505   39.5944   68.8116 H   0  0  0  0  0  0  0  0  0  0  0  0
   30.1386   37.0830   66.3156 H   0  0  0  0  0  0  0  0  0  0  0  0
   33.1992   39.8791   65.7044 H   0  0  0  0  0  0  0  0  0  0  0  0
   33.1292   40.3690   67.4142 H   0  0  0  0  0  0  0  0  0  0  0  0
   34.3403   39.1800   66.8780 H   0  0  0  0  0  0  0  0  0  0  0  0
   30.7250   36.3613   60.1539 H   0  0  0  0  0  0  0  0  0  0  0  0
   31.9843   37.1961   59.1916 H   0  0  0  0  0  0  0  0  0  0  0  0
  1  2  1  0  0  0  0
  1 27  1  0  0  0  0
  1 28  1  0  0  0  0
  1 29  1  0  0  0  0
  2  3  1  0  0  0  0
  3  8  2  0  0  0  0
  3  4  1  0  0  0  0
  4  5  2  0  0  0  0
  4 30  1  0  0  0  0
  5  6  1  0  0  0  0
  5 31  1  0  0  0  0
  6  7  2  0  0  0  0
  6 32  1  0  0  0  0
  7  8  1  0  0  0  0
  7 33  1  0  0  0  0
  8  9  1  0  0  0  0
  9 10  1  6  0  0  0
  9 21  1  0  0  0  0
  9 11  1  0  0  0  0
 11 16  2  0  0  0  0
 11 12  1  0  0  0  0
 12 13  2  0  0  0  0
 12 34  1  0  0  0  0
 13 26  1  0  0  0  0
 13 14  1  0  0  0  0
 14 15  2  0  0  0  0
 14 24  1  0  0  0  0
 15 16  1  0  0  0  0
 15 35  1  0  0  0  0
 16 17  1  0  0  0  0
 17 18  1  0  0  0  0
 18 19  1  0  0  0  0
 18 20  1  1  0  0  0
 18 21  1  0  0  0  0
 19 36  1  0  0  0  0
 19 37  1  0  0  0  0
 19 38  1  0  0  0  0
 20 39  1  0  0  0  0
 21 22  1  1  0  0  0
 21 23  1  0  0  0  0
 23 40  1  0  0  0  0
 23 41  1  0  0  0  0
 23 42  1  0  0  0  0
 24 25  1  0  0  0  0
 25 26  1  0  0  0  0
 25 43  1  0  0  0  0
 25 44  1  0  0  0  0
M  END
$$$$
