ZINC000000039110      none
 OpenBabel11202420153D

 32 33  0  0  1  0  0  0  0  0999 V2000
   31.9586   39.3050   65.4814 C   0  0  0  0  0  0  0  0  0  0  0  0
   31.1232   38.1296   65.9930 C   0  0  0  0  0  0  0  0  0  0  0  0
   31.9957   37.0561   66.6468 C   0  0  0  0  0  0  0  0  0  0  0  0
   29.9587   38.5990   66.9358 C   0  0  2  0  0  0  0  0  0  0  0  0
   30.2537   39.0907   67.8627 H   0  0  0  0  0  0  0  0  0  0  0  0
   29.1599   37.2681   67.0899 C   0  0  0  0  0  0  0  0  0  0  0  0
   29.3110   36.5663   65.7205 C   0  0  0  0  0  0  0  0  0  0  0  0
   30.1944   37.5355   64.8763 C   0  0  2  0  0  0  0  0  0  0  0  0
   30.9022   36.9156   63.6699 C   0  0  0  0  0  0  0  0  0  0  0  0
   29.7639   35.7938   62.8116 S   0  0  0  0  0  0  0  0  0  0  0  0
   30.4064   35.6355   61.2935 N   0  0  0  0  0  0  0  0  0  0  0  0
   29.8416   34.4867   63.3632 O   0  0  0  0  0  0  0  0  0  0  0  0
   28.5091   36.4252   62.5969 O   0  0  0  0  0  0  0  0  0  0  0  0
   29.2819   38.7367   64.5906 C   0  0  0  0  0  0  0  0  0  0  0  0
   28.8012   39.0551   63.5295 O   0  0  0  0  0  0  0  0  0  0  0  0
   29.1132   39.4420   65.9325 C   0  0  0  0  0  0  0  0  0  0  0  0
   32.6656   38.9492   64.7320 H   0  0  0  0  0  0  0  0  0  0  0  0
   31.3009   40.0511   65.0353 H   0  0  0  0  0  0  0  0  0  0  0  0
   32.5042   39.7519   66.3124 H   0  0  0  0  0  0  0  0  0  0  0  0
   32.5415   37.4915   67.4838 H   0  0  0  0  0  0  0  0  0  0  0  0
   31.3638   36.2447   67.0079 H   0  0  0  0  0  0  0  0  0  0  0  0
   32.7033   36.6673   65.9146 H   0  0  0  0  0  0  0  0  0  0  0  0
   29.5909   36.6550   67.8813 H   0  0  0  0  0  0  0  0  0  0  0  0
   28.1106   37.4761   67.2992 H   0  0  0  0  0  0  0  0  0  0  0  0
   29.8107   35.6049   65.8391 H   0  0  0  0  0  0  0  0  0  0  0  0
   28.3358   36.4318   65.2526 H   0  0  0  0  0  0  0  0  0  0  0  0
   31.2171   37.7055   62.9879 H   0  0  0  0  0  0  0  0  0  0  0  0
   31.7756   36.3581   64.0081 H   0  0  0  0  0  0  0  0  0  0  0  0
   30.2766   34.8134   60.7954 H   0  0  0  0  0  0  0  0  0  0  0  0
   30.9124   36.3648   60.9024 H   0  0  0  0  0  0  0  0  0  0  0  0
   28.0645   39.4462   66.2303 H   0  0  0  0  0  0  0  0  0  0  0  0
   29.4962   40.4610   65.8763 H   0  0  0  0  0  0  0  0  0  0  0  0
  1  2  1  0  0  0  0
  1 17  1  0  0  0  0
  1 18  1  0  0  0  0
  1 19  1  0  0  0  0
  2  8  1  0  0  0  0
  2  3  1  0  0  0  0
  2  4  1  0  0  0  0
  3 20  1  0  0  0  0
  3 21  1  0  0  0  0
  3 22  1  0  0  0  0
  4  5  1  1  0  0  0
  4 16  1  0  0  0  0
  4  6  1  0  0  0  0
  6  7  1  0  0  0  0
  6 23  1  0  0  0  0
  6 24  1  0  0  0  0
  7  8  1  0  0  0  0
  7 25  1  0  0  0  0
  7 26  1  0  0  0  0
  8  9  1  6  0  0  0
  8 14  1  0  0  0  0
  9 10  1  0  0  0  0
  9 27  1  0  0  0  0
  9 28  1  0  0  0  0
 10 11  1  0  0  0  0
 10 12  2  0  0  0  0
 10 13  2  0  0  0  0
 11 29  1  0  0  0  0
 11 30  1  0  0  0  0
 14 15  2  0  0  0  0
 14 16  1  0  0  0  0
 16 31  1  0  0  0  0
 16 32  1  0  0  0  0
M  END
$$$$
