ZINC000000033246      none
 OpenBabel11202420153D

 27 27  0  0  0  0  0  0  0  0999 V2000
   33.1637   35.4340   56.5168 C   0  0  0  0  0  0  0  0  0  0  0  0
   33.2082   36.8487   57.0341 C   0  0  0  0  0  0  0  0  0  0  0  0
   33.6472   37.8719   56.2144 C   0  0  0  0  0  0  0  0  0  0  0  0
   34.1485   37.5265   54.5887 Cl  0  0  0  0  0  0  0  0  0  0  0  0
   33.6925   39.1703   56.6910 C   0  0  0  0  0  0  0  0  0  0  0  0
   33.2893   39.4496   57.9838 C   0  0  0  0  0  0  0  0  0  0  0  0
   32.8499   38.4316   58.8072 C   0  0  0  0  0  0  0  0  0  0  0  0
   32.8079   37.1263   58.3340 C   0  0  0  0  0  0  0  0  0  0  0  0
   32.3636   36.0930   59.1665 N   0  0  0  0  0  0  0  0  0  0  0  0
   31.1159   36.1267   59.6750 C   0  0  0  0  0  0  0  0  0  0  0  0
   30.3782   37.0526   59.4112 O   0  0  0  0  0  0  0  0  0  0  0  0
   30.6374   35.0138   60.5715 C   0  0  0  0  0  0  0  0  0  0  0  0
   32.0439   34.3202   61.4752 S   0  0  0  0  0  0  0  0  0  0  0  0
   31.1960   33.5374   62.8067 C   0  0  0  0  0  0  0  0  0  0  0  0
   30.9521   34.2188   63.9437 N   0  0  0  0  0  0  0  0  0  0  0  0
   30.8309   32.3824   62.6998 O   0  0  0  0  0  0  0  0  0  0  0  0
   34.1153   34.9428   56.7200 H   0  0  0  0  0  0  0  0  0  0  0  0
   32.3607   34.8903   57.0142 H   0  0  0  0  0  0  0  0  0  0  0  0
   32.9832   35.4457   55.4418 H   0  0  0  0  0  0  0  0  0  0  0  0
   34.0400   39.9675   56.0507 H   0  0  0  0  0  0  0  0  0  0  0  0
   33.3219   40.4645   58.3516 H   0  0  0  0  0  0  0  0  0  0  0  0
   32.5394   38.6502   59.8181 H   0  0  0  0  0  0  0  0  0  0  0  0
   32.9535   35.3525   59.3774 H   0  0  0  0  0  0  0  0  0  0  0  0
   29.9080   35.4062   61.2800 H   0  0  0  0  0  0  0  0  0  0  0  0
   30.1738   34.2342   59.9670 H   0  0  0  0  0  0  0  0  0  0  0  0
   31.2432   35.1401   64.0290 H   0  0  0  0  0  0  0  0  0  0  0  0
   30.4853   33.7879   64.6767 H   0  0  0  0  0  0  0  0  0  0  0  0
  1  2  1  0  0  0  0
  1 17  1  0  0  0  0
  1 18  1  0  0  0  0
  1 19  1  0  0  0  0
  2  8  2  0  0  0  0
  2  3  1  0  0  0  0
  3  4  1  0  0  0  0
  3  5  2  0  0  0  0
  5  6  1  0  0  0  0
  5 20  1  0  0  0  0
  6  7  2  0  0  0  0
  6 21  1  0  0  0  0
  7  8  1  0  0  0  0
  7 22  1  0  0  0  0
  8  9  1  0  0  0  0
  9 10  1  0  0  0  0
  9 23  1  0  0  0  0
 10 11  2  0  0  0  0
 10 12  1  0  0  0  0
 12 13  1  0  0  0  0
 12 24  1  0  0  0  0
 12 25  1  0  0  0  0
 13 14  1  0  0  0  0
 14 15  1  0  0  0  0
 14 16  2  0  0  0  0
 15 26  1  0  0  0  0
 15 27  1  0  0  0  0
M  END
$$$$
