ZINC000000030491      none
 OpenBabel11202420163D

 30 30  0  0  1  0  0  0  0  0999 V2000
   30.3561   39.1509   64.6311 C   0  0  0  0  0  0  0  0  0  0  0  0
   29.7469   37.8939   64.0069 C   0  0  0  0  0  0  0  0  0  0  0  0
   30.2109   37.7696   62.5542 C   0  0  0  0  0  0  0  0  0  0  0  0
   31.7371   37.6711   62.5130 C   0  0  1  0  0  0  0  0  0  0  0  0
   32.1712   38.5666   62.9578 H   0  0  0  0  0  0  0  0  0  0  0  0
   32.1903   36.4400   63.3001 C   0  0  0  0  0  0  0  0  0  0  0  0
   32.1942   37.5489   61.0822 C   0  0  0  0  0  0  0  0  0  0  0  0
   32.3125   36.4536   60.5750 O   0  0  0  0  0  0  0  0  0  0  0  0
   32.4715   38.6566   60.3663 N   0  0  0  0  0  0  0  0  0  0  0  0
   32.8946   38.5434   59.0423 C   0  0  0  0  0  0  0  0  0  0  0  0
   33.1786   39.6903   58.3098 C   0  0  0  0  0  0  0  0  0  0  0  0
   33.5976   39.5644   56.9973 C   0  0  0  0  0  0  0  0  0  0  0  0
   33.7130   38.2892   56.4581 C   0  0  0  0  0  0  0  0  0  0  0  0
   34.2275   38.0750   54.8140 Cl  0  0  0  0  0  0  0  0  0  0  0  0
   33.4188   37.1930   57.2462 C   0  0  0  0  0  0  0  0  0  0  0  0
   33.0215   37.3451   58.4952 N   0  0  0  0  0  0  0  0  0  0  0  0
   31.4434   39.0807   64.6017 H   0  0  0  0  0  0  0  0  0  0  0  0
   30.0333   40.0280   64.0703 H   0  0  0  0  0  0  0  0  0  0  0  0
   30.0255   39.2394   65.6659 H   0  0  0  0  0  0  0  0  0  0  0  0
   28.6594   37.9640   64.0362 H   0  0  0  0  0  0  0  0  0  0  0  0
   30.0696   37.0167   64.5677 H   0  0  0  0  0  0  0  0  0  0  0  0
   29.8882   38.6467   61.9934 H   0  0  0  0  0  0  0  0  0  0  0  0
   29.7770   36.8741   62.1094 H   0  0  0  0  0  0  0  0  0  0  0  0
   33.2776   36.3698   63.2709 H   0  0  0  0  0  0  0  0  0  0  0  0
   31.8597   36.5284   64.3351 H   0  0  0  0  0  0  0  0  0  0  0  0
   31.7563   35.5444   62.8554 H   0  0  0  0  0  0  0  0  0  0  0  0
   32.3769   39.5325   60.7720 H   0  0  0  0  0  0  0  0  0  0  0  0
   33.0741   40.6667   58.7596 H   0  0  0  0  0  0  0  0  0  0  0  0
   33.8254   40.4377   56.4040 H   0  0  0  0  0  0  0  0  0  0  0  0
   33.5104   36.1993   56.8331 H   0  0  0  0  0  0  0  0  0  0  0  0
  1  2  1  0  0  0  0
  1 17  1  0  0  0  0
  1 18  1  0  0  0  0
  1 19  1  0  0  0  0
  2  3  1  0  0  0  0
  2 20  1  0  0  0  0
  2 21  1  0  0  0  0
  3  4  1  0  0  0  0
  3 22  1  0  0  0  0
  3 23  1  0  0  0  0
  4  5  1  1  0  0  0
  4  6  1  0  0  0  0
  4  7  1  0  0  0  0
  6 24  1  0  0  0  0
  6 25  1  0  0  0  0
  6 26  1  0  0  0  0
  7  8  2  0  0  0  0
  7  9  1  0  0  0  0
  9 10  1  0  0  0  0
  9 27  1  0  0  0  0
 10 16  2  0  0  0  0
 10 11  1  0  0  0  0
 11 12  2  0  0  0  0
 11 28  1  0  0  0  0
 12 13  1  0  0  0  0
 12 29  1  0  0  0  0
 13 14  1  0  0  0  0
 13 15  2  0  0  0  0
 15 16  1  0  0  0  0
 15 30  1  0  0  0  0
M  END
$$$$
