ZINC000000025239      none
 OpenBabel11202420153D

 50 52  0  0  0  0  0  0  0  0999 V2000
   31.4097   33.4263   58.5852 C   0  0  0  0  0  0  0  0  0  0  0  0
   32.3658   34.3824   59.3013 C   0  0  0  0  0  0  0  0  0  0  0  0
   32.7886   35.4742   58.3524 C   0  0  0  0  0  0  0  0  0  0  0  0
   33.1575   35.1612   57.0588 C   0  0  0  0  0  0  0  0  0  0  0  0
   33.5520   36.1617   56.1895 C   0  0  0  0  0  0  0  0  0  0  0  0
   33.5721   37.4788   56.6101 C   0  0  0  0  0  0  0  0  0  0  0  0
   33.1985   37.7991   57.9006 C   0  0  0  0  0  0  0  0  0  0  0  0
   33.2203   39.2348   58.3581 C   0  0  0  0  0  0  0  0  0  0  0  0
   32.5889   40.1221   57.2833 C   0  0  0  0  0  0  0  0  0  0  0  0
   32.8023   36.7966   58.7761 C   0  0  0  0  0  0  0  0  0  0  0  0
   32.4231   37.1177   60.0844 N   0  0  0  0  0  0  0  0  0  0  0  0
   31.1843   36.8150   60.5205 C   0  0  0  0  0  0  0  0  0  0  0  0
   30.3962   36.2628   59.7773 O   0  0  0  0  0  0  0  0  0  0  0  0
   30.8193   37.1242   61.7805 N   0  0  0  0  0  0  0  0  0  0  0  0
   29.4728   36.7950   62.2546 C   0  0  0  0  0  0  0  0  0  0  0  0
   29.5129   36.5307   63.7612 C   0  0  0  0  0  0  0  0  0  0  0  0
   30.1165   37.6292   64.5979 C   0  0  0  0  0  0  0  0  0  0  0  0
   29.3137   38.6370   65.0987 C   0  0  0  0  0  0  0  0  0  0  0  0
   29.8665   39.6416   65.8706 C   0  0  0  0  0  0  0  0  0  0  0  0
   31.2238   39.6448   66.1325 C   0  0  0  0  0  0  0  0  0  0  0  0
   32.0276   38.6401   65.6269 C   0  0  0  0  0  0  0  0  0  0  0  0
   31.4738   37.6322   64.8598 C   0  0  0  0  0  0  0  0  0  0  0  0
   29.7375   35.0884   64.2196 C   0  0  0  0  0  0  0  0  0  0  0  0
   28.3578   35.7329   64.3694 C   0  0  0  0  0  0  0  0  0  0  0  0
   31.0347   32.6886   59.2945 H   0  0  0  0  0  0  0  0  0  0  0  0
   30.5737   33.9906   58.1719 H   0  0  0  0  0  0  0  0  0  0  0  0
   31.9394   32.9189   57.7791 H   0  0  0  0  0  0  0  0  0  0  0  0
   33.2449   33.8328   59.6376 H   0  0  0  0  0  0  0  0  0  0  0  0
   31.8620   34.8235   60.1615 H   0  0  0  0  0  0  0  0  0  0  0  0
   33.1428   34.1335   56.7273 H   0  0  0  0  0  0  0  0  0  0  0  0
   33.8445   35.9140   55.1798 H   0  0  0  0  0  0  0  0  0  0  0  0
   33.8807   38.2580   55.9288 H   0  0  0  0  0  0  0  0  0  0  0  0
   32.6552   39.3293   59.2853 H   0  0  0  0  0  0  0  0  0  0  0  0
   34.2508   39.5466   58.5273 H   0  0  0  0  0  0  0  0  0  0  0  0
   33.2181   40.1183   56.3932 H   0  0  0  0  0  0  0  0  0  0  0  0
   31.6002   39.7392   57.0308 H   0  0  0  0  0  0  0  0  0  0  0  0
   32.4987   41.1408   57.6602 H   0  0  0  0  0  0  0  0  0  0  0  0
   33.0520   37.5581   60.6773 H   0  0  0  0  0  0  0  0  0  0  0  0
   31.4480   37.5646   62.3734 H   0  0  0  0  0  0  0  0  0  0  0  0
   29.1136   35.9043   61.7390 H   0  0  0  0  0  0  0  0  0  0  0  0
   28.8014   37.6290   62.0499 H   0  0  0  0  0  0  0  0  0  0  0  0
   28.2539   38.6369   64.8905 H   0  0  0  0  0  0  0  0  0  0  0  0
   29.2385   40.4264   66.2661 H   0  0  0  0  0  0  0  0  0  0  0  0
   31.6562   40.4318   66.7324 H   0  0  0  0  0  0  0  0  0  0  0  0
   33.0879   38.6425   65.8314 H   0  0  0  0  0  0  0  0  0  0  0  0
   32.1017   36.8473   64.4646 H   0  0  0  0  0  0  0  0  0  0  0  0
   29.8563   34.3277   63.4480 H   0  0  0  0  0  0  0  0  0  0  0  0
   30.3218   34.9338   65.1266 H   0  0  0  0  0  0  0  0  0  0  0  0
   28.0347   36.0023   65.3749 H   0  0  0  0  0  0  0  0  0  0  0  0
   27.5691   35.3966   63.6965 H   0  0  0  0  0  0  0  0  0  0  0  0
  1  2  1  0  0  0  0
  1 25  1  0  0  0  0
  1 26  1  0  0  0  0
  1 27  1  0  0  0  0
  2  3  1  0  0  0  0
  2 28  1  0  0  0  0
  2 29  1  0  0  0  0
  3 10  2  0  0  0  0
  3  4  1  0  0  0  0
  4  5  2  0  0  0  0
  4 30  1  0  0  0  0
  5  6  1  0  0  0  0
  5 31  1  0  0  0  0
  6  7  2  0  0  0  0
  6 32  1  0  0  0  0
  7  8  1  0  0  0  0
  7 10  1  0  0  0  0
  8  9  1  0  0  0  0
  8 33  1  0  0  0  0
  8 34  1  0  0  0  0
  9 35  1  0  0  0  0
  9 36  1  0  0  0  0
  9 37  1  0  0  0  0
 10 11  1  0  0  0  0
 11 12  1  0  0  0  0
 11 38  1  0  0  0  0
 12 13  2  0  0  0  0
 12 14  1  0  0  0  0
 14 15  1  0  0  0  0
 14 39  1  0  0  0  0
 15 16  1  0  0  0  0
 15 40  1  0  0  0  0
 15 41  1  0  0  0  0
 16 24  1  0  0  0  0
 16 17  1  0  0  0  0
 16 23  1  0  0  0  0
 17 22  2  0  0  0  0
 17 18  1  0  0  0  0
 18 19  2  0  0  0  0
 18 42  1  0  0  0  0
 19 20  1  0  0  0  0
 19 43  1  0  0  0  0
 20 21  2  0  0  0  0
 20 44  1  0  0  0  0
 21 22  1  0  0  0  0
 21 45  1  0  0  0  0
 22 46  1  0  0  0  0
 23 24  1  0  0  0  0
 23 47  1  0  0  0  0
 23 48  1  0  0  0  0
 24 49  1  0  0  0  0
 24 50  1  0  0  0  0
M  END
$$$$
