ZINC000000033997      none
 OpenBabel11202420153D

 28 29  0  0  0  0  0  0  0  0999 V2000
   30.4246   39.2326   64.8901 C   0  0  0  0  0  0  0  0  0  0  0  0
   30.7887   38.4462   63.6573 C   0  0  0  0  0  0  0  0  0  0  0  0
   29.8620   38.2825   62.6443 C   0  0  0  0  0  0  0  0  0  0  0  0
   30.1933   37.5620   61.5132 C   0  0  0  0  0  0  0  0  0  0  0  0
   31.4574   37.0025   61.3939 C   0  0  0  0  0  0  0  0  0  0  0  0
   31.7856   36.2930   60.2826 O   0  0  0  0  0  0  0  0  0  0  0  0
   32.3347   36.9641   59.2363 C   0  0  0  0  0  0  0  0  0  0  0  0
   32.6810   36.2826   58.0783 C   0  0  0  0  0  0  0  0  0  0  0  0
   33.2442   36.9662   57.0182 C   0  0  0  0  0  0  0  0  0  0  0  0
   33.4527   38.3303   57.1063 C   0  0  0  0  0  0  0  0  0  0  0  0
   34.0512   39.0612   55.9667 N   0  0  0  0  0  0  0  0  0  0  0  0
   34.3595   38.4611   54.9526 O   0  0  0  0  0  0  0  0  0  0  0  0
   34.2353   40.2628   56.0431 O   0  0  0  0  0  0  0  0  0  0  0  0
   33.1036   39.0127   58.2571 C   0  0  0  0  0  0  0  0  0  0  0  0
   32.5450   38.3329   59.3220 C   0  0  0  0  0  0  0  0  0  0  0  0
   32.3841   37.1642   62.4142 C   0  0  0  0  0  0  0  0  0  0  0  0
   32.0491   37.8897   63.5410 C   0  0  0  0  0  0  0  0  0  0  0  0
   29.9980   38.5620   65.6361 H   0  0  0  0  0  0  0  0  0  0  0  0
   31.3184   39.7063   65.2961 H   0  0  0  0  0  0  0  0  0  0  0  0
   29.6938   39.9983   64.6298 H   0  0  0  0  0  0  0  0  0  0  0  0
   28.8781   38.7181   62.7375 H   0  0  0  0  0  0  0  0  0  0  0  0
   29.4690   37.4345   60.7221 H   0  0  0  0  0  0  0  0  0  0  0  0
   32.5142   35.2179   58.0073 H   0  0  0  0  0  0  0  0  0  0  0  0
   33.5177   36.4356   56.1182 H   0  0  0  0  0  0  0  0  0  0  0  0
   33.2676   40.0781   58.3233 H   0  0  0  0  0  0  0  0  0  0  0  0
   32.2725   38.8665   60.2206 H   0  0  0  0  0  0  0  0  0  0  0  0
   33.3672   36.7260   62.3257 H   0  0  0  0  0  0  0  0  0  0  0  0
   32.7713   38.0189   64.3336 H   0  0  0  0  0  0  0  0  0  0  0  0
  1  2  1  0  0  0  0
  1 18  1  0  0  0  0
  1 19  1  0  0  0  0
  1 20  1  0  0  0  0
  2 17  2  0  0  0  0
  2  3  1  0  0  0  0
  3  4  2  0  0  0  0
  3 21  1  0  0  0  0
  4  5  1  0  0  0  0
  4 22  1  0  0  0  0
  5  6  1  0  0  0  0
  5 16  2  0  0  0  0
  6  7  1  0  0  0  0
  7 15  2  0  0  0  0
  7  8  1  0  0  0  0
  8  9  2  0  0  0  0
  8 23  1  0  0  0  0
  9 10  1  0  0  0  0
  9 24  1  0  0  0  0
 10 11  1  0  0  0  0
 10 14  2  0  0  0  0
 11 12  2  0  0  0  0
 11 13  2  0  0  0  0
 14 15  1  0  0  0  0
 14 25  1  0  0  0  0
 15 26  1  0  0  0  0
 16 17  1  0  0  0  0
 16 27  1  0  0  0  0
 17 28  1  0  0  0  0
M  END
$$$$
