ZINC000000030034      none
 OpenBabel11202420163D

 31 32  0  0  0  0  0  0  0  0999 V2000
   29.9035   40.8150   66.9485 C   0  0  0  0  0  0  0  0  0  0  0  0
   29.4743   39.9257   65.9157 O   0  0  0  0  0  0  0  0  0  0  0  0
   30.4050   39.0760   65.4068 C   0  0  0  0  0  0  0  0  0  0  0  0
   31.7052   39.0986   65.8935 C   0  0  0  0  0  0  0  0  0  0  0  0
   32.6558   38.2361   65.3803 C   0  0  0  0  0  0  0  0  0  0  0  0
   32.3174   37.3431   64.3840 C   0  0  0  0  0  0  0  0  0  0  0  0
   31.0145   37.3169   63.8846 C   0  0  0  0  0  0  0  0  0  0  0  0
   30.6497   36.3654   62.8131 C   0  0  0  0  0  0  0  0  0  0  0  0
   30.2361   35.2585   63.0981 O   0  0  0  0  0  0  0  0  0  0  0  0
   30.7758   36.7255   61.5204 N   0  0  0  0  0  0  0  0  0  0  0  0
   30.4200   35.7947   60.4375 C   0  0  0  0  0  0  0  0  0  0  0  0
   31.5895   35.7343   59.4483 C   0  0  0  0  0  0  0  0  0  0  0  0
   31.9433   37.0624   59.0548 O   0  0  0  0  0  0  0  0  0  0  0  0
   32.4026   37.8881   60.1277 C   0  0  0  0  0  0  0  0  0  0  0  0
   31.2742   38.0598   61.1511 C   0  0  0  0  0  0  0  0  0  0  0  0
   30.0559   38.1877   64.4038 C   0  0  0  0  0  0  0  0  0  0  0  0
   30.7049   41.4502   66.5713 H   0  0  0  0  0  0  0  0  0  0  0  0
   29.0655   41.4363   67.2645 H   0  0  0  0  0  0  0  0  0  0  0  0
   30.2676   40.2368   67.7978 H   0  0  0  0  0  0  0  0  0  0  0  0
   31.9747   39.7925   66.6760 H   0  0  0  0  0  0  0  0  0  0  0  0
   33.6653   38.2580   65.7635 H   0  0  0  0  0  0  0  0  0  0  0  0
   33.0614   36.6677   63.9883 H   0  0  0  0  0  0  0  0  0  0  0  0
   29.5254   36.1513   59.9269 H   0  0  0  0  0  0  0  0  0  0  0  0
   30.2367   34.8026   60.8503 H   0  0  0  0  0  0  0  0  0  0  0  0
   31.2941   35.1608   58.5698 H   0  0  0  0  0  0  0  0  0  0  0  0
   32.4450   35.2558   59.9249 H   0  0  0  0  0  0  0  0  0  0  0  0
   33.2608   37.4177   60.6075 H   0  0  0  0  0  0  0  0  0  0  0  0
   32.6930   38.8637   59.7377 H   0  0  0  0  0  0  0  0  0  0  0  0
   31.6561   38.5673   62.0369 H   0  0  0  0  0  0  0  0  0  0  0  0
   30.4662   38.6450   60.7118 H   0  0  0  0  0  0  0  0  0  0  0  0
   29.0449   38.1688   64.0245 H   0  0  0  0  0  0  0  0  0  0  0  0
  1  2  1  0  0  0  0
  1 17  1  0  0  0  0
  1 18  1  0  0  0  0
  1 19  1  0  0  0  0
  2  3  1  0  0  0  0
  3 16  2  0  0  0  0
  3  4  1  0  0  0  0
  4  5  2  0  0  0  0
  4 20  1  0  0  0  0
  5  6  1  0  0  0  0
  5 21  1  0  0  0  0
  6  7  2  0  0  0  0
  6 22  1  0  0  0  0
  7  8  1  0  0  0  0
  7 16  1  0  0  0  0
  8  9  2  0  0  0  0
  8 10  1  0  0  0  0
 10 15  1  0  0  0  0
 10 11  1  0  0  0  0
 11 12  1  0  0  0  0
 11 23  1  0  0  0  0
 11 24  1  0  0  0  0
 12 13  1  0  0  0  0
 12 25  1  0  0  0  0
 12 26  1  0  0  0  0
 13 14  1  0  0  0  0
 14 15  1  0  0  0  0
 14 27  1  0  0  0  0
 14 28  1  0  0  0  0
 15 29  1  0  0  0  0
 15 30  1  0  0  0  0
 16 31  1  0  0  0  0
M  END
$$$$
