ZINC000000051448      none
 OpenBabel11202420153D

 36 38  0  0  0  0  0  0  0  0999 V2000
   30.4973   39.8580   66.3344 C   0  0  0  0  0  0  0  0  0  0  0  0
   29.3811   39.3487   65.4203 C   0  0  0  0  0  0  0  0  0  0  0  0
   29.9814   38.8046   64.1497 C   0  0  0  0  0  0  0  0  0  0  0  0
   30.2118   39.4751   63.0547 N   0  0  0  0  0  0  0  0  0  0  0  0
   30.7291   38.7028   62.1670 N   0  0  0  0  0  0  0  0  0  0  0  0
   30.8569   37.4915   62.6518 C   0  0  0  0  0  0  0  0  0  0  0  0
   31.3767   36.3840   61.9861 N   0  0  0  0  0  0  0  0  0  0  0  0
   31.5108   35.0921   62.5106 N   0  0  0  0  0  0  0  0  0  0  0  0
   32.0383   34.3228   61.5918 C   0  0  0  0  0  0  0  0  0  0  0  0
   32.3505   32.8566   61.7467 C   0  0  0  0  0  0  0  0  0  0  0  0
   32.2574   35.0847   60.4434 C   0  0  0  0  0  0  0  0  0  0  0  0
   31.8484   36.3622   60.7035 C   0  0  0  0  0  0  0  0  0  0  0  0
   31.9003   37.5071   59.7685 C   0  0  0  0  0  0  0  0  0  0  0  0
   30.8236   37.7685   58.9204 C   0  0  0  0  0  0  0  0  0  0  0  0
   30.8766   38.8407   58.0535 C   0  0  0  0  0  0  0  0  0  0  0  0
   31.9981   39.6500   58.0175 C   0  0  0  0  0  0  0  0  0  0  0  0
   33.0711   39.3931   58.8522 C   0  0  0  0  0  0  0  0  0  0  0  0
   33.0286   38.3270   59.7268 C   0  0  0  0  0  0  0  0  0  0  0  0
   30.3790   37.5187   63.9296 N   0  0  0  0  0  0  0  0  0  0  0  0
   30.3147   36.4745   64.8080 N   0  0  0  0  0  0  0  0  0  0  0  0
   31.1733   39.0373   66.5743 H   0  0  0  0  0  0  0  0  0  0  0  0
   31.0507   40.6479   65.8266 H   0  0  0  0  0  0  0  0  0  0  0  0
   30.0631   40.2516   67.2535 H   0  0  0  0  0  0  0  0  0  0  0  0
   28.7050   40.1695   65.1803 H   0  0  0  0  0  0  0  0  0  0  0  0
   28.8276   38.5589   65.9280 H   0  0  0  0  0  0  0  0  0  0  0  0
   31.4857   32.2668   61.4427 H   0  0  0  0  0  0  0  0  0  0  0  0
   33.2044   32.5989   61.1200 H   0  0  0  0  0  0  0  0  0  0  0  0
   32.5874   32.6436   62.7891 H   0  0  0  0  0  0  0  0  0  0  0  0
   32.6783   34.7285   59.5148 H   0  0  0  0  0  0  0  0  0  0  0  0
   29.9491   37.1352   58.9449 H   0  0  0  0  0  0  0  0  0  0  0  0
   30.0423   39.0462   57.3991 H   0  0  0  0  0  0  0  0  0  0  0  0
   32.0361   40.4858   57.3344 H   0  0  0  0  0  0  0  0  0  0  0  0
   33.9437   40.0287   58.8191 H   0  0  0  0  0  0  0  0  0  0  0  0
   33.8667   38.1277   60.3781 H   0  0  0  0  0  0  0  0  0  0  0  0
   31.1583   36.4123   65.3580 H   0  0  0  0  0  0  0  0  0  0  0  0
   29.5014   36.5499   65.4004 H   0  0  0  0  0  0  0  0  0  0  0  0
  1  2  1  0  0  0  0
  1 21  1  0  0  0  0
  1 22  1  0  0  0  0
  1 23  1  0  0  0  0
  2  3  1  0  0  0  0
  2 24  1  0  0  0  0
  2 25  1  0  0  0  0
  3 19  1  0  0  0  0
  3  4  2  0  0  0  0
  4  5  1  0  0  0  0
  5  6  2  0  0  0  0
  6  7  1  0  0  0  0
  6 19  1  0  0  0  0
  7 12  1  0  0  0  0
  7  8  1  0  0  0  0
  8  9  2  0  0  0  0
  9 10  1  0  0  0  0
  9 11  1  0  0  0  0
 10 26  1  0  0  0  0
 10 27  1  0  0  0  0
 10 28  1  0  0  0  0
 11 12  2  0  0  0  0
 11 29  1  0  0  0  0
 12 13  1  0  0  0  0
 13 18  2  0  0  0  0
 13 14  1  0  0  0  0
 14 15  2  0  0  0  0
 14 30  1  0  0  0  0
 15 16  1  0  0  0  0
 15 31  1  0  0  0  0
 16 17  2  0  0  0  0
 16 32  1  0  0  0  0
 17 18  1  0  0  0  0
 17 33  1  0  0  0  0
 18 34  1  0  0  0  0
 19 20  1  0  0  0  0
 20 35  1  0  0  0  0
 20 36  1  0  0  0  0
M  END
$$$$
