ZINC000000000471      none
 OpenBabel11202420153D

 31 32  0  0  1  0  0  0  0  0999 V2000
   33.4389   33.1485   55.4530 C   0  0  0  0  0  0  0  0  0  0  0  0
   33.3534   34.5092   56.0948 C   0  0  0  0  0  0  0  0  0  0  0  0
   33.7354   35.6328   55.3853 C   0  0  0  0  0  0  0  0  0  0  0  0
   33.6572   36.8829   55.9710 C   0  0  0  0  0  0  0  0  0  0  0  0
   34.0734   38.1055   55.1946 C   0  0  0  0  0  0  0  0  0  0  0  0
   33.1974   37.0121   57.2673 C   0  0  0  0  0  0  0  0  0  0  0  0
   32.8139   35.8862   57.9814 C   0  0  0  0  0  0  0  0  0  0  0  0
   32.3612   36.0107   59.2568 O   0  0  0  0  0  0  0  0  0  0  0  0
   31.6897   37.2271   59.5909 C   0  0  0  0  0  0  0  0  0  0  0  0
   31.2562   37.1839   61.0576 C   0  0  1  0  0  0  0  0  0  0  0  0
   30.4614   37.9067   61.2415 H   0  0  0  0  0  0  0  0  0  0  0  0
   30.7990   35.7639   61.4440 C   0  0  0  0  0  0  0  0  0  0  0  0
   31.7372   35.3710   62.5068 N   0  0  0  0  0  0  0  0  0  0  0  0
   32.5992   36.3751   62.7171 C   0  0  0  0  0  0  0  0  0  0  0  0
   33.4886   36.3233   63.5436 O   0  0  0  0  0  0  0  0  0  0  0  0
   32.3919   37.4395   61.9337 O   0  0  0  0  0  0  0  0  0  0  0  0
   32.8987   34.6325   57.3935 C   0  0  0  0  0  0  0  0  0  0  0  0
   34.4198   32.7154   55.6490 H   0  0  0  0  0  0  0  0  0  0  0  0
   32.6665   32.5014   55.8687 H   0  0  0  0  0  0  0  0  0  0  0  0
   33.2924   33.2442   54.3772 H   0  0  0  0  0  0  0  0  0  0  0  0
   34.0952   35.5339   54.3718 H   0  0  0  0  0  0  0  0  0  0  0  0
   35.1341   38.2963   55.3583 H   0  0  0  0  0  0  0  0  0  0  0  0
   33.8939   37.9398   54.1322 H   0  0  0  0  0  0  0  0  0  0  0  0
   33.4935   38.9647   55.5313 H   0  0  0  0  0  0  0  0  0  0  0  0
   33.1368   37.9886   57.7245 H   0  0  0  0  0  0  0  0  0  0  0  0
   30.8117   37.3439   58.9557 H   0  0  0  0  0  0  0  0  0  0  0  0
   32.3647   38.0689   59.4362 H   0  0  0  0  0  0  0  0  0  0  0  0
   29.7769   35.7805   61.8225 H   0  0  0  0  0  0  0  0  0  0  0  0
   30.8820   35.0897   60.5916 H   0  0  0  0  0  0  0  0  0  0  0  0
   31.7325   34.5234   62.9783 H   0  0  0  0  0  0  0  0  0  0  0  0
   32.6050   33.7540   57.9489 H   0  0  0  0  0  0  0  0  0  0  0  0
  1  2  1  0  0  0  0
  1 18  1  0  0  0  0
  1 19  1  0  0  0  0
  1 20  1  0  0  0  0
  2 17  2  0  0  0  0
  2  3  1  0  0  0  0
  3  4  2  0  0  0  0
  3 21  1  0  0  0  0
  4  5  1  0  0  0  0
  4  6  1  0  0  0  0
  5 22  1  0  0  0  0
  5 23  1  0  0  0  0
  5 24  1  0  0  0  0
  6  7  2  0  0  0  0
  6 25  1  0  0  0  0
  7  8  1  0  0  0  0
  7 17  1  0  0  0  0
  8  9  1  0  0  0  0
  9 10  1  0  0  0  0
  9 26  1  0  0  0  0
  9 27  1  0  0  0  0
 10 11  1  1  0  0  0
 10 16  1  0  0  0  0
 10 12  1  0  0  0  0
 12 13  1  0  0  0  0
 12 28  1  0  0  0  0
 12 29  1  0  0  0  0
 13 14  1  0  0  0  0
 13 30  1  0  0  0  0
 14 15  2  0  0  0  0
 14 16  1  0  0  0  0
 17 31  1  0  0  0  0
M  END
$$$$
