ZINC000000055165      none
 OpenBabel11202420153D

 36 38  0  0  0  0  0  0  0  0999 V2000
   32.0235   39.1449   66.5946 C   0  0  0  0  0  0  0  0  0  0  0  0
   32.6425   38.5449   65.4550 O   0  0  0  0  0  0  0  0  0  0  0  0
   31.9974   37.4933   64.8847 C   0  0  0  0  0  0  0  0  0  0  0  0
   30.7927   37.0490   65.4117 C   0  0  0  0  0  0  0  0  0  0  0  0
   30.1355   35.9804   64.8327 C   0  0  0  0  0  0  0  0  0  0  0  0
   30.6749   35.3511   63.7273 C   0  0  0  0  0  0  0  0  0  0  0  0
   31.8803   35.7911   63.1960 C   0  0  0  0  0  0  0  0  0  0  0  0
   32.4266   35.1537   62.0766 N   0  0  0  0  0  0  0  0  0  0  0  0
   32.1930   33.8431   61.8663 C   0  0  0  0  0  0  0  0  0  0  0  0
   31.5090   33.2162   62.6474 O   0  0  0  0  0  0  0  0  0  0  0  0
   32.7815   33.1567   60.6607 C   0  0  0  0  0  0  0  0  0  0  0  0
   31.6242   33.2753   59.2741 S   0  0  0  0  0  0  0  0  0  0  0  0
   32.1672   34.7875   58.5508 C   0  0  0  0  0  0  0  0  0  0  0  0
   32.1796   35.9287   59.1516 N   0  0  0  0  0  0  0  0  0  0  0  0
   32.6281   36.9977   58.4643 C   0  0  0  0  0  0  0  0  0  0  0  0
   32.7432   38.3375   58.8921 C   0  0  0  0  0  0  0  0  0  0  0  0
   33.2212   39.3006   58.0398 C   0  0  0  0  0  0  0  0  0  0  0  0
   33.5993   38.9738   56.7458 C   0  0  0  0  0  0  0  0  0  0  0  0
   33.4961   37.6724   56.3067 C   0  0  0  0  0  0  0  0  0  0  0  0
   33.0126   36.6820   57.1578 C   0  0  0  0  0  0  0  0  0  0  0  0
   32.7621   34.9564   56.9051 S   0  0  0  0  0  0  0  0  0  0  0  0
   32.5418   36.8644   63.7762 C   0  0  0  0  0  0  0  0  0  0  0  0
   31.0388   39.5208   66.3174 H   0  0  0  0  0  0  0  0  0  0  0  0
   31.9195   38.4016   67.3850 H   0  0  0  0  0  0  0  0  0  0  0  0
   32.6405   39.9699   66.9508 H   0  0  0  0  0  0  0  0  0  0  0  0
   30.3686   37.5391   66.2757 H   0  0  0  0  0  0  0  0  0  0  0  0
   29.1982   35.6367   65.2447 H   0  0  0  0  0  0  0  0  0  0  0  0
   30.1591   34.5163   63.2764 H   0  0  0  0  0  0  0  0  0  0  0  0
   32.9737   35.6551   61.4518 H   0  0  0  0  0  0  0  0  0  0  0  0
   33.7217   33.6380   60.3915 H   0  0  0  0  0  0  0  0  0  0  0  0
   32.9639   32.1074   60.8929 H   0  0  0  0  0  0  0  0  0  0  0  0
   32.4523   38.6067   59.8967 H   0  0  0  0  0  0  0  0  0  0  0  0
   33.3043   40.3225   58.3796 H   0  0  0  0  0  0  0  0  0  0  0  0
   33.9746   39.7395   56.0831 H   0  0  0  0  0  0  0  0  0  0  0  0
   33.7908   37.4194   55.2990 H   0  0  0  0  0  0  0  0  0  0  0  0
   33.4770   37.2115   63.3621 H   0  0  0  0  0  0  0  0  0  0  0  0
  1  2  1  0  0  0  0
  1 23  1  0  0  0  0
  1 24  1  0  0  0  0
  1 25  1  0  0  0  0
  2  3  1  0  0  0  0
  3 22  2  0  0  0  0
  3  4  1  0  0  0  0
  4  5  2  0  0  0  0
  4 26  1  0  0  0  0
  5  6  1  0  0  0  0
  5 27  1  0  0  0  0
  6  7  2  0  0  0  0
  6 28  1  0  0  0  0
  7  8  1  0  0  0  0
  7 22  1  0  0  0  0
  8  9  1  0  0  0  0
  8 29  1  0  0  0  0
  9 10  2  0  0  0  0
  9 11  1  0  0  0  0
 11 12  1  0  0  0  0
 11 30  1  0  0  0  0
 11 31  1  0  0  0  0
 12 13  1  0  0  0  0
 13 21  1  0  0  0  0
 13 14  2  0  0  0  0
 14 15  1  0  0  0  0
 15 20  2  0  0  0  0
 15 16  1  0  0  0  0
 16 17  2  0  0  0  0
 16 32  1  0  0  0  0
 17 18  1  0  0  0  0
 17 33  1  0  0  0  0
 18 19  2  0  0  0  0
 18 34  1  0  0  0  0
 19 20  1  0  0  0  0
 19 35  1  0  0  0  0
 20 21  1  0  0  0  0
 22 36  1  0  0  0  0
M  END
$$$$
