ZINC000000044657      none
 OpenBabel11202420153D

 41 43  0  0  1  0  0  0  0  0999 V2000
   28.5107   31.2655   66.9785 C   0  0  0  0  0  0  0  0  0  0  0  0
   27.8617   32.4874   66.3253 C   0  0  0  0  0  0  0  0  0  0  0  0
   28.4868   32.7378   65.0389 O   0  0  0  0  0  0  0  0  0  0  0  0
   29.5584   33.5566   65.0279 C   0  0  0  0  0  0  0  0  0  0  0  0
   29.9590   34.0476   66.0655 O   0  0  0  0  0  0  0  0  0  0  0  0
   30.2401   33.8546   63.7651 C   0  0  0  0  0  0  0  0  0  0  0  0
   30.8301   32.9626   62.9369 C   0  0  0  0  0  0  0  0  0  0  0  0
   30.8896   31.6263   63.1386 O   0  0  0  0  0  0  0  0  0  0  0  0
   31.3995   33.6797   61.7767 C   0  0  0  0  0  0  0  0  0  0  0  0
   31.9943   33.1553   60.8560 O   0  0  0  0  0  0  0  0  0  0  0  0
   31.1619   34.9991   61.8907 N   0  0  0  0  0  0  0  0  0  0  0  0
   31.5565   35.9874   60.9847 C   0  0  0  0  0  0  0  0  0  0  0  0
   31.2385   37.3183   61.2239 C   0  0  0  0  0  0  0  0  0  0  0  0
   31.6346   38.2929   60.3294 C   0  0  0  0  0  0  0  0  0  0  0  0
   32.3380   37.9439   59.1909 C   0  0  0  0  0  0  0  0  0  0  0  0
   32.6514   36.6193   58.9467 C   0  0  0  0  0  0  0  0  0  0  0  0
   32.2629   35.6403   59.8399 C   0  0  0  0  0  0  0  0  0  0  0  0
   30.4203   35.2174   63.1382 C   0  0  2  0  0  0  0  0  0  0  0  0
   29.4487   35.6627   62.9237 H   0  0  0  0  0  0  0  0  0  0  0  0
   31.2088   36.1116   64.0600 C   0  0  0  0  0  0  0  0  0  0  0  0
   30.5528   36.8957   64.9905 C   0  0  0  0  0  0  0  0  0  0  0  0
   31.2764   37.7125   65.8390 C   0  0  0  0  0  0  0  0  0  0  0  0
   32.6554   37.7525   65.7507 C   0  0  0  0  0  0  0  0  0  0  0  0
   33.3110   36.9721   64.8169 C   0  0  0  0  0  0  0  0  0  0  0  0
   32.5877   36.1519   63.9713 C   0  0  0  0  0  0  0  0  0  0  0  0
   28.0414   31.0775   67.9441 H   0  0  0  0  0  0  0  0  0  0  0  0
   28.3780   30.3960   66.3347 H   0  0  0  0  0  0  0  0  0  0  0  0
   29.5748   31.4524   67.1219 H   0  0  0  0  0  0  0  0  0  0  0  0
   27.9944   33.3569   66.9691 H   0  0  0  0  0  0  0  0  0  0  0  0
   26.7974   32.3005   66.1820 H   0  0  0  0  0  0  0  0  0  0  0  0
   31.3516   31.1433   62.4398 H   0  0  0  0  0  0  0  0  0  0  0  0
   30.6856   37.5910   62.1108 H   0  0  0  0  0  0  0  0  0  0  0  0
   31.3912   39.3282   60.5168 H   0  0  0  0  0  0  0  0  0  0  0  0
   32.6431   38.7076   58.4908 H   0  0  0  0  0  0  0  0  0  0  0  0
   33.2002   36.3501   58.0564 H   0  0  0  0  0  0  0  0  0  0  0  0
   32.5076   34.6059   59.6484 H   0  0  0  0  0  0  0  0  0  0  0  0
   29.4754   36.8676   65.0569 H   0  0  0  0  0  0  0  0  0  0  0  0
   30.7643   38.3221   66.5688 H   0  0  0  0  0  0  0  0  0  0  0  0
   33.2206   38.3933   66.4113 H   0  0  0  0  0  0  0  0  0  0  0  0
   34.3884   37.0032   64.7480 H   0  0  0  0  0  0  0  0  0  0  0  0
   33.0999   35.5424   63.2415 H   0  0  0  0  0  0  0  0  0  0  0  0
  1  2  1  0  0  0  0
  1 26  1  0  0  0  0
  1 27  1  0  0  0  0
  1 28  1  0  0  0  0
  2  3  1  0  0  0  0
  2 29  1  0  0  0  0
  2 30  1  0  0  0  0
  3  4  1  0  0  0  0
  4  5  2  0  0  0  0
  4  6  1  0  0  0  0
  6 18  1  0  0  0  0
  6  7  2  0  0  0  0
  7  8  1  0  0  0  0
  7  9  1  0  0  0  0
  8 31  1  0  0  0  0
  9 10  2  0  0  0  0
  9 11  1  0  0  0  0
 11 12  1  0  0  0  0
 11 18  1  0  0  0  0
 12 17  2  0  0  0  0
 12 13  1  0  0  0  0
 13 14  2  0  0  0  0
 13 32  1  0  0  0  0
 14 15  1  0  0  0  0
 14 33  1  0  0  0  0
 15 16  2  0  0  0  0
 15 34  1  0  0  0  0
 16 17  1  0  0  0  0
 16 35  1  0  0  0  0
 17 36  1  0  0  0  0
 18 19  1  6  0  0  0
 18 20  1  0  0  0  0
 20 25  2  0  0  0  0
 20 21  1  0  0  0  0
 21 22  2  0  0  0  0
 21 37  1  0  0  0  0
 22 23  1  0  0  0  0
 22 38  1  0  0  0  0
 23 24  2  0  0  0  0
 23 39  1  0  0  0  0
 24 25  1  0  0  0  0
 24 40  1  0  0  0  0
 25 41  1  0  0  0  0
M  END
$$$$
