ZINC000000032598      none
 OpenBabel11202420153D

 34 36  0  0  0  0  0  0  0  0999 V2000
   35.7484   31.4301   54.4367 C   0  0  0  0  0  0  0  0  0  0  0  0
   34.5259   32.0794   53.8409 C   0  0  0  0  0  0  0  0  0  0  0  0
   34.1229   31.9542   52.6131 N   0  0  0  0  0  0  0  0  0  0  0  0
   32.9418   32.7215   52.4609 O   0  0  0  0  0  0  0  0  0  0  0  0
   32.6601   33.3220   53.7131 N   0  0  0  0  0  0  0  0  0  0  0  0
   33.5952   32.9562   54.5478 C   0  0  0  0  0  0  0  0  0  0  0  0
   33.6864   33.3322   55.8837 N   0  0  0  0  0  0  0  0  0  0  0  0
   32.6707   34.2113   56.4682 C   0  0  0  0  0  0  0  0  0  0  0  0
   33.0794   35.6083   56.3012 N   0  0  0  0  0  0  0  0  0  0  0  0
   33.5717   36.1709   55.1805 C   0  0  0  0  0  0  0  0  0  0  0  0
   33.8273   37.4360   55.3971 N   0  0  0  0  0  0  0  0  0  0  0  0
   33.5160   37.7512   56.6570 C   0  0  0  0  0  0  0  0  0  0  0  0
   33.0275   36.5994   57.2609 C   0  0  0  0  0  0  0  0  0  0  0  0
   32.6128   36.6526   58.6090 C   0  0  0  0  0  0  0  0  0  0  0  0
   32.1841   35.6554   59.1616 O   0  0  0  0  0  0  0  0  0  0  0  0
   32.6973   37.8210   59.2787 N   0  0  0  0  0  0  0  0  0  0  0  0
   32.2685   37.8832   60.6782 C   0  0  0  0  0  0  0  0  0  0  0  0
   33.1685   38.9289   58.6808 C   0  0  0  0  0  0  0  0  0  0  0  0
   33.2295   39.9644   59.3153 O   0  0  0  0  0  0  0  0  0  0  0  0
   33.5830   38.9188   57.3998 N   0  0  0  0  0  0  0  0  0  0  0  0
   34.0888   40.1487   56.7851 C   0  0  0  0  0  0  0  0  0  0  0  0
   35.4789   30.4578   54.8492 H   0  0  0  0  0  0  0  0  0  0  0  0
   36.5043   31.2994   53.6623 H   0  0  0  0  0  0  0  0  0  0  0  0
   36.1463   32.0634   55.2296 H   0  0  0  0  0  0  0  0  0  0  0  0
   34.4204   33.0092   56.4295 H   0  0  0  0  0  0  0  0  0  0  0  0
   31.7172   34.0491   55.9658 H   0  0  0  0  0  0  0  0  0  0  0  0
   32.5645   33.9883   57.5299 H   0  0  0  0  0  0  0  0  0  0  0  0
   33.7316   35.6558   54.2448 H   0  0  0  0  0  0  0  0  0  0  0  0
   33.1141   37.6565   61.3276 H   0  0  0  0  0  0  0  0  0  0  0  0
   31.8977   38.8838   60.9004 H   0  0  0  0  0  0  0  0  0  0  0  0
   31.4749   37.1556   60.8477 H   0  0  0  0  0  0  0  0  0  0  0  0
   33.2610   40.6973   56.3359 H   0  0  0  0  0  0  0  0  0  0  0  0
   34.5635   40.7670   57.5470 H   0  0  0  0  0  0  0  0  0  0  0  0
   34.8182   39.8967   56.0153 H   0  0  0  0  0  0  0  0  0  0  0  0
  1  2  1  0  0  0  0
  1 22  1  0  0  0  0
  1 23  1  0  0  0  0
  1 24  1  0  0  0  0
  2  6  1  0  0  0  0
  2  3  2  0  0  0  0
  3  4  1  0  0  0  0
  4  5  1  0  0  0  0
  5  6  2  0  0  0  0
  6  7  1  0  0  0  0
  7  8  1  0  0  0  0
  7 25  1  0  0  0  0
  8  9  1  0  0  0  0
  8 26  1  0  0  0  0
  8 27  1  0  0  0  0
  9 13  1  0  0  0  0
  9 10  1  0  0  0  0
 10 11  2  0  0  0  0
 10 28  1  0  0  0  0
 11 12  1  0  0  0  0
 12 20  1  0  0  0  0
 12 13  2  0  0  0  0
 13 14  1  0  0  0  0
 14 15  2  0  0  0  0
 14 16  1  0  0  0  0
 16 17  1  0  0  0  0
 16 18  1  0  0  0  0
 17 29  1  0  0  0  0
 17 30  1  0  0  0  0
 17 31  1  0  0  0  0
 18 19  2  0  0  0  0
 18 20  1  0  0  0  0
 20 21  1  0  0  0  0
 21 32  1  0  0  0  0
 21 33  1  0  0  0  0
 21 34  1  0  0  0  0
M  END
$$$$
