ZINC000000006647      none
 OpenBabel11202420153D

 31 32  0  0  0  0  0  0  0  0999 V2000
   30.7213   35.2614   67.8696 C   0  0  0  0  0  0  0  0  0  0  0  0
   30.6462   36.6904   67.3285 C   0  0  0  0  0  0  0  0  0  0  0  0
   31.9959   37.1644   67.0121 N   0  0  0  0  0  0  0  0  0  0  0  0
   32.7882   37.8541   68.0331 C   0  0  0  0  0  0  0  0  0  0  0  0
   32.5087   36.9657   65.7815 C   0  0  0  0  0  0  0  0  0  0  0  0
   33.6281   37.3588   65.5190 O   0  0  0  0  0  0  0  0  0  0  0  0
   31.7783   36.3365   64.8412 O   0  0  0  0  0  0  0  0  0  0  0  0
   30.9908   37.1122   64.0499 C   0  0  0  0  0  0  0  0  0  0  0  0
   30.4554   38.2418   64.4404 N   0  0  0  0  0  0  0  0  0  0  0  0
   29.5750   38.8296   63.1183 S   0  0  0  0  0  0  0  0  0  0  0  0
   29.8901   37.6592   62.1328 N   0  0  0  0  0  0  0  0  0  0  0  0
   30.6592   36.7908   62.7366 C   0  0  0  0  0  0  0  0  0  0  0  0
   31.1417   35.5555   62.0720 C   0  0  0  0  0  0  0  0  0  0  0  0
   31.9141   35.6395   60.9140 C   0  0  0  0  0  0  0  0  0  0  0  0
   32.3143   37.1911   60.2462 Cl  0  0  0  0  0  0  0  0  0  0  0  0
   32.3644   34.4857   60.3024 C   0  0  0  0  0  0  0  0  0  0  0  0
   32.0420   33.2490   60.8297 C   0  0  0  0  0  0  0  0  0  0  0  0
   31.2718   33.1587   61.9755 C   0  0  0  0  0  0  0  0  0  0  0  0
   30.8198   34.3054   62.5994 C   0  0  0  0  0  0  0  0  0  0  0  0
   29.8539   34.1904   64.0371 Cl  0  0  0  0  0  0  0  0  0  0  0  0
   31.3326   35.2462   68.7719 H   0  0  0  0  0  0  0  0  0  0  0  0
   29.7172   34.9087   68.1049 H   0  0  0  0  0  0  0  0  0  0  0  0
   31.1678   34.6110   67.1173 H   0  0  0  0  0  0  0  0  0  0  0  0
   30.1999   37.3408   68.0806 H   0  0  0  0  0  0  0  0  0  0  0  0
   30.0350   36.7057   66.4261 H   0  0  0  0  0  0  0  0  0  0  0  0
   32.5320   38.9137   68.0376 H   0  0  0  0  0  0  0  0  0  0  0  0
   32.5732   37.4244   69.0115 H   0  0  0  0  0  0  0  0  0  0  0  0
   33.8487   37.7376   67.8102 H   0  0  0  0  0  0  0  0  0  0  0  0
   32.9661   34.5496   59.4078 H   0  0  0  0  0  0  0  0  0  0  0  0
   32.3922   32.3492   60.3458 H   0  0  0  0  0  0  0  0  0  0  0  0
   31.0232   32.1899   62.3832 H   0  0  0  0  0  0  0  0  0  0  0  0
  1  2  1  0  0  0  0
  1 21  1  0  0  0  0
  1 22  1  0  0  0  0
  1 23  1  0  0  0  0
  2  3  1  0  0  0  0
  2 24  1  0  0  0  0
  2 25  1  0  0  0  0
  3  4  1  0  0  0  0
  3  5  1  0  0  0  0
  4 26  1  0  0  0  0
  4 27  1  0  0  0  0
  4 28  1  0  0  0  0
  5  6  2  0  0  0  0
  5  7  1  0  0  0  0
  7  8  1  0  0  0  0
  8 12  1  0  0  0  0
  8  9  2  0  0  0  0
  9 10  1  0  0  0  0
 10 11  1  0  0  0  0
 11 12  2  0  0  0  0
 12 13  1  0  0  0  0
 13 19  2  0  0  0  0
 13 14  1  0  0  0  0
 14 15  1  0  0  0  0
 14 16  2  0  0  0  0
 16 17  1  0  0  0  0
 16 29  1  0  0  0  0
 17 18  2  0  0  0  0
 17 30  1  0  0  0  0
 18 19  1  0  0  0  0
 18 31  1  0  0  0  0
 19 20  1  0  0  0  0
M  END
$$$$
