ZINC000000029170      none
 OpenBabel11202420163D

 40 42  0  0  0  0  0  0  0  0999 V2000
   33.9243   33.7430   57.8499 O   0  0  0  0  0  0  0  0  0  0  0  0
   33.4459   34.6031   57.1366 C   0  0  0  0  0  0  0  0  0  0  0  0
   32.8495   35.8149   57.7381 C   0  0  0  0  0  0  0  0  0  0  0  0
   33.3663   37.0759   57.4310 C   0  0  0  0  0  0  0  0  0  0  0  0
   32.8062   38.2090   57.9870 C   0  0  0  0  0  0  0  0  0  0  0  0
   31.7408   38.1035   58.8590 C   0  0  0  0  0  0  0  0  0  0  0  0
   31.2182   36.8483   59.1792 C   0  0  0  0  0  0  0  0  0  0  0  0
   30.0773   36.7371   60.1131 C   0  0  0  0  0  0  0  0  0  0  0  0
   29.0362   36.2304   59.7433 O   0  0  0  0  0  0  0  0  0  0  0  0
   30.1919   37.1973   61.3747 N   0  0  0  0  0  0  0  0  0  0  0  0
   31.3898   37.8237   61.9528 C   0  0  0  0  0  0  0  0  0  0  0  0
   31.0644   38.1657   63.4220 C   0  0  0  0  0  0  0  0  0  0  0  0
   29.9010   37.1940   63.7533 C   0  0  0  0  0  0  0  0  0  0  0  0
   29.1388   37.1504   62.4054 C   0  0  0  0  0  0  0  0  0  0  0  0
   31.7744   35.7014   58.6168 C   0  0  0  0  0  0  0  0  0  0  0  0
   33.4543   34.4497   55.7976 N   0  0  0  0  0  0  0  0  0  0  0  0
   32.9068   35.4039   54.8224 C   0  0  0  0  0  0  0  0  0  0  0  0
   33.1189   34.7975   53.4192 C   0  0  0  0  0  0  0  0  0  0  0  0
   33.2547   33.2807   53.7154 C   0  0  0  0  0  0  0  0  0  0  0  0
   34.0083   33.2941   55.0687 C   0  0  0  0  0  0  0  0  0  0  0  0
   34.2024   37.1650   56.7534 H   0  0  0  0  0  0  0  0  0  0  0  0
   33.2066   39.1818   57.7427 H   0  0  0  0  0  0  0  0  0  0  0  0
   31.3106   38.9934   59.2942 H   0  0  0  0  0  0  0  0  0  0  0  0
   32.2289   37.1295   61.9089 H   0  0  0  0  0  0  0  0  0  0  0  0
   31.6314   38.7356   61.4068 H   0  0  0  0  0  0  0  0  0  0  0  0
   30.7405   39.2021   63.5179 H   0  0  0  0  0  0  0  0  0  0  0  0
   31.9251   37.9688   64.0611 H   0  0  0  0  0  0  0  0  0  0  0  0
   29.2700   37.5959   64.5461 H   0  0  0  0  0  0  0  0  0  0  0  0
   30.2798   36.2074   64.0200 H   0  0  0  0  0  0  0  0  0  0  0  0
   28.4799   38.0139   62.3141 H   0  0  0  0  0  0  0  0  0  0  0  0
   28.5664   36.2266   62.3210 H   0  0  0  0  0  0  0  0  0  0  0  0
   31.3742   34.7285   58.8614 H   0  0  0  0  0  0  0  0  0  0  0  0
   31.8430   35.5531   55.0067 H   0  0  0  0  0  0  0  0  0  0  0  0
   33.4350   36.3544   54.8970 H   0  0  0  0  0  0  0  0  0  0  0  0
   34.0295   35.1842   52.9616 H   0  0  0  0  0  0  0  0  0  0  0  0
   32.2546   34.9906   52.7836 H   0  0  0  0  0  0  0  0  0  0  0  0
   33.8439   32.7833   52.9450 H   0  0  0  0  0  0  0  0  0  0  0  0
   32.2753   32.8134   53.8183 H   0  0  0  0  0  0  0  0  0  0  0  0
   35.0780   33.4258   54.9059 H   0  0  0  0  0  0  0  0  0  0  0  0
   33.8196   32.3725   55.6192 H   0  0  0  0  0  0  0  0  0  0  0  0
  1  2  2  0  0  0  0
  2  3  1  0  0  0  0
  2 16  1  0  0  0  0
  3 15  2  0  0  0  0
  3  4  1  0  0  0  0
  4  5  2  0  0  0  0
  4 21  1  0  0  0  0
  5  6  1  0  0  0  0
  5 22  1  0  0  0  0
  6  7  2  0  0  0  0
  6 23  1  0  0  0  0
  7  8  1  0  0  0  0
  7 15  1  0  0  0  0
  8  9  2  0  0  0  0
  8 10  1  0  0  0  0
 10 14  1  0  0  0  0
 10 11  1  0  0  0  0
 11 12  1  0  0  0  0
 11 24  1  0  0  0  0
 11 25  1  0  0  0  0
 12 13  1  0  0  0  0
 12 26  1  0  0  0  0
 12 27  1  0  0  0  0
 13 14  1  0  0  0  0
 13 28  1  0  0  0  0
 13 29  1  0  0  0  0
 14 30  1  0  0  0  0
 14 31  1  0  0  0  0
 15 32  1  0  0  0  0
 16 20  1  0  0  0  0
 16 17  1  0  0  0  0
 17 18  1  0  0  0  0
 17 33  1  0  0  0  0
 17 34  1  0  0  0  0
 18 19  1  0  0  0  0
 18 35  1  0  0  0  0
 18 36  1  0  0  0  0
 19 20  1  0  0  0  0
 19 37  1  0  0  0  0
 19 38  1  0  0  0  0
 20 39  1  0  0  0  0
 20 40  1  0  0  0  0
M  END
$$$$
