ZINC000000023660      none
 OpenBabel11202420153D

 19 20  0  0  0  0  0  0  0  0999 V2000
   33.2058   40.9044   59.2035 N   0  0  0  0  0  0  0  0  0  0  0  0
   33.1077   39.6051   58.8594 C   0  0  0  0  0  0  0  0  0  0  0  0
   32.5389   38.4590   59.9969 S   0  0  0  0  0  0  0  0  0  0  0  0
   33.4878   39.1735   57.5126 C   0  0  0  0  0  0  0  0  0  0  0  0
   33.9533   39.9683   56.5118 N   0  0  0  0  0  0  0  0  0  0  0  0
   34.1870   39.2433   55.4584 C   0  0  0  0  0  0  0  0  0  0  0  0
   33.8831   37.9389   55.7268 N   0  0  0  0  0  0  0  0  0  0  0  0
   33.9498   36.7930   54.9669 C   0  0  0  0  0  0  0  0  0  0  0  0
   33.5795   35.6120   55.4956 C   0  0  0  0  0  0  0  0  0  0  0  0
   33.1214   35.5508   56.8340 C   0  0  0  0  0  0  0  0  0  0  0  0
   32.6491   34.0521   57.5135 S   0  0  0  0  0  0  0  0  0  0  0  0
   33.0588   36.6789   57.5713 N   0  0  0  0  0  0  0  0  0  0  0  0
   32.7456   36.6433   58.4886 H   0  0  0  0  0  0  0  0  0  0  0  0
   33.4403   37.8791   57.0199 C   0  0  0  0  0  0  0  0  0  0  0  0
   33.5281   41.5538   58.5590 H   0  0  0  0  0  0  0  0  0  0  0  0
   32.9540   41.1903   60.0956 H   0  0  0  0  0  0  0  0  0  0  0  0
   34.5626   39.6150   54.5165 H   0  0  0  0  0  0  0  0  0  0  0  0
   34.2998   36.8416   53.9464 H   0  0  0  0  0  0  0  0  0  0  0  0
   33.6320   34.7125   54.9001 H   0  0  0  0  0  0  0  0  0  0  0  0
  1  2  1  0  0  0  0
  1 15  1  0  0  0  0
  1 16  1  0  0  0  0
  2  3  2  0  0  0  0
  2  4  1  0  0  0  0
  4 14  2  0  0  0  0
  4  5  1  0  0  0  0
  5  6  2  0  0  0  0
  6  7  1  0  0  0  0
  6 17  1  0  0  0  0
  7 14  1  0  0  0  0
  7  8  1  0  0  0  0
  8  9  2  0  0  0  0
  8 18  1  0  0  0  0
  9 10  1  0  0  0  0
  9 19  1  0  0  0  0
 10 11  2  0  0  0  0
 10 12  1  0  0  0  0
 12 13  1  0  0  0  0
 12 14  1  0  0  0  0
M  END
$$$$
