ZINC000000036382      none
 OpenBabel11202420153D

 40 42  0  0  0  0  0  0  0  0999 V2000
   35.1095   38.4776   54.6667 C   0  0  0  0  0  0  0  0  0  0  0  0
   34.5902   37.3405   55.3590 O   0  0  0  0  0  0  0  0  0  0  0  0
   33.8912   37.5789   56.4996 C   0  0  0  0  0  0  0  0  0  0  0  0
   33.7130   38.8951   56.9375 C   0  0  0  0  0  0  0  0  0  0  0  0
   33.0225   39.1651   58.0774 C   0  0  0  0  0  0  0  0  0  0  0  0
   32.4691   38.1101   58.8238 C   0  0  0  0  0  0  0  0  0  0  0  0
   31.7459   38.3535   60.0038 C   0  0  0  0  0  0  0  0  0  0  0  0
   31.2284   37.3079   60.7047 C   0  0  0  0  0  0  0  0  0  0  0  0
   30.3229   37.6183   62.1840 S   0  0  0  0  0  0  0  0  0  0  0  0
   29.8390   38.9507   62.0862 O   0  0  0  0  0  0  0  0  0  0  0  0
   29.4739   36.4953   62.3779 O   0  0  0  0  0  0  0  0  0  0  0  0
   31.4080   37.6056   63.4349 N   0  0  0  0  0  0  0  0  0  0  0  0
   32.1977   36.4021   63.7073 C   0  0  0  0  0  0  0  0  0  0  0  0
   31.4527   35.5214   64.6772 C   0  0  0  0  0  0  0  0  0  0  0  0
   31.6486   35.6710   66.0373 C   0  0  0  0  0  0  0  0  0  0  0  0
   30.9615   34.8664   66.9271 C   0  0  0  0  0  0  0  0  0  0  0  0
   30.0863   33.9055   66.4564 C   0  0  0  0  0  0  0  0  0  0  0  0
   29.8948   33.7523   65.0960 C   0  0  0  0  0  0  0  0  0  0  0  0
   30.5777   34.5603   64.2064 C   0  0  0  0  0  0  0  0  0  0  0  0
   31.4045   35.9953   60.2705 C   0  0  0  0  0  0  0  0  0  0  0  0
   32.0991   35.7211   59.1327 C   0  0  0  0  0  0  0  0  0  0  0  0
   32.6483   36.7751   58.3820 C   0  0  0  0  0  0  0  0  0  0  0  0
   33.3714   36.5301   57.2031 C   0  0  0  0  0  0  0  0  0  0  0  0
   34.2880   39.1321   54.3754 H   0  0  0  0  0  0  0  0  0  0  0  0
   35.7922   39.0205   55.3205 H   0  0  0  0  0  0  0  0  0  0  0  0
   35.6445   38.1477   53.7762 H   0  0  0  0  0  0  0  0  0  0  0  0
   34.1338   39.7083   56.3646 H   0  0  0  0  0  0  0  0  0  0  0  0
   32.8966   40.1861   58.4060 H   0  0  0  0  0  0  0  0  0  0  0  0
   31.6010   39.3653   60.3525 H   0  0  0  0  0  0  0  0  0  0  0  0
   31.5207   38.3950   63.9872 H   0  0  0  0  0  0  0  0  0  0  0  0
   32.3643   35.8586   62.7773 H   0  0  0  0  0  0  0  0  0  0  0  0
   33.1572   36.6870   64.1387 H   0  0  0  0  0  0  0  0  0  0  0  0
   32.3355   36.4188   66.4051 H   0  0  0  0  0  0  0  0  0  0  0  0
   31.1115   34.9860   67.9900 H   0  0  0  0  0  0  0  0  0  0  0  0
   29.5524   33.2745   67.1513 H   0  0  0  0  0  0  0  0  0  0  0  0
   29.2112   33.0014   64.7281 H   0  0  0  0  0  0  0  0  0  0  0  0
   30.4281   34.4406   63.1435 H   0  0  0  0  0  0  0  0  0  0  0  0
   30.9833   35.1838   60.8452 H   0  0  0  0  0  0  0  0  0  0  0  0
   32.2273   34.6992   58.8080 H   0  0  0  0  0  0  0  0  0  0  0  0
   33.5152   35.5179   56.8548 H   0  0  0  0  0  0  0  0  0  0  0  0
  1  2  1  0  0  0  0
  1 24  1  0  0  0  0
  1 25  1  0  0  0  0
  1 26  1  0  0  0  0
  2  3  1  0  0  0  0
  3 23  2  0  0  0  0
  3  4  1  0  0  0  0
  4  5  2  0  0  0  0
  4 27  1  0  0  0  0
  5  6  1  0  0  0  0
  5 28  1  0  0  0  0
  6 22  2  0  0  0  0
  6  7  1  0  0  0  0
  7  8  2  0  0  0  0
  7 29  1  0  0  0  0
  8  9  1  0  0  0  0
  8 20  1  0  0  0  0
  9 10  2  0  0  0  0
  9 11  2  0  0  0  0
  9 12  1  0  0  0  0
 12 13  1  0  0  0  0
 12 30  1  0  0  0  0
 13 14  1  0  0  0  0
 13 31  1  0  0  0  0
 13 32  1  0  0  0  0
 14 19  2  0  0  0  0
 14 15  1  0  0  0  0
 15 16  2  0  0  0  0
 15 33  1  0  0  0  0
 16 17  1  0  0  0  0
 16 34  1  0  0  0  0
 17 18  2  0  0  0  0
 17 35  1  0  0  0  0
 18 19  1  0  0  0  0
 18 36  1  0  0  0  0
 19 37  1  0  0  0  0
 20 21  2  0  0  0  0
 20 38  1  0  0  0  0
 21 22  1  0  0  0  0
 21 39  1  0  0  0  0
 22 23  1  0  0  0  0
 23 40  1  0  0  0  0
M  END
$$$$
