ZINC000000049181      none
 OpenBabel11202420153D

 32 34  0  0  0  0  0  0  0  0999 V2000
   33.2117   37.2934   56.1018 C   0  0  0  0  0  0  0  0  0  0  0  0
   32.7492   36.5996   57.3570 C   0  0  0  0  0  0  0  0  0  0  0  0
   32.2266   37.1795   58.3899 N   0  0  0  0  0  0  0  0  0  0  0  0
   31.9318   36.1935   59.3414 N   0  0  0  0  0  0  0  0  0  0  0  0
   31.3561   36.4014   60.6002 C   0  0  0  0  0  0  0  0  0  0  0  0
   32.0402   36.0257   61.7491 C   0  0  0  0  0  0  0  0  0  0  0  0
   31.4717   36.2371   62.9898 C   0  0  0  0  0  0  0  0  0  0  0  0
   30.2182   36.8127   63.0887 C   0  0  0  0  0  0  0  0  0  0  0  0
   29.5319   37.1828   61.9465 C   0  0  0  0  0  0  0  0  0  0  0  0
   30.0970   36.9790   60.7030 C   0  0  0  0  0  0  0  0  0  0  0  0
   32.3056   35.0067   58.8194 C   0  0  0  0  0  0  0  0  0  0  0  0
   32.1622   33.4771   59.5749 S   0  0  0  0  0  0  0  0  0  0  0  0
   32.8120   35.2467   57.5932 N   0  0  0  0  0  0  0  0  0  0  0  0
   33.3158   34.2822   56.7104 C   0  0  0  0  0  0  0  0  0  0  0  0
   34.3952   33.4929   57.0845 C   0  0  0  0  0  0  0  0  0  0  0  0
   34.8864   32.5399   56.2139 C   0  0  0  0  0  0  0  0  0  0  0  0
   34.3112   32.3784   54.9667 C   0  0  0  0  0  0  0  0  0  0  0  0
   33.2395   33.1666   54.5893 C   0  0  0  0  0  0  0  0  0  0  0  0
   32.7403   34.1178   55.4576 C   0  0  0  0  0  0  0  0  0  0  0  0
   34.2592   37.5757   56.2076 H   0  0  0  0  0  0  0  0  0  0  0  0
   33.1012   36.6194   55.2523 H   0  0  0  0  0  0  0  0  0  0  0  0
   32.6095   38.1869   55.9375 H   0  0  0  0  0  0  0  0  0  0  0  0
   33.0175   35.5722   61.6725 H   0  0  0  0  0  0  0  0  0  0  0  0
   32.0050   35.9492   63.8838 H   0  0  0  0  0  0  0  0  0  0  0  0
   29.7740   36.9733   64.0599 H   0  0  0  0  0  0  0  0  0  0  0  0
   28.5531   37.6322   62.0271 H   0  0  0  0  0  0  0  0  0  0  0  0
   29.5607   37.2686   59.8114 H   0  0  0  0  0  0  0  0  0  0  0  0
   34.8475   33.6213   58.0568 H   0  0  0  0  0  0  0  0  0  0  0  0
   35.7231   31.9225   56.5060 H   0  0  0  0  0  0  0  0  0  0  0  0
   34.6994   31.6351   54.2864 H   0  0  0  0  0  0  0  0  0  0  0  0
   32.7925   33.0383   53.6145 H   0  0  0  0  0  0  0  0  0  0  0  0
   31.9030   34.7328   55.1623 H   0  0  0  0  0  0  0  0  0  0  0  0
  1  2  1  0  0  0  0
  1 20  1  0  0  0  0
  1 21  1  0  0  0  0
  1 22  1  0  0  0  0
  2 13  1  0  0  0  0
  2  3  2  0  0  0  0
  3  4  1  0  0  0  0
  4  5  1  0  0  0  0
  4 11  1  0  0  0  0
  5 10  2  0  0  0  0
  5  6  1  0  0  0  0
  6  7  2  0  0  0  0
  6 23  1  0  0  0  0
  7  8  1  0  0  0  0
  7 24  1  0  0  0  0
  8  9  2  0  0  0  0
  8 25  1  0  0  0  0
  9 10  1  0  0  0  0
  9 26  1  0  0  0  0
 10 27  1  0  0  0  0
 11 12  2  0  0  0  0
 11 13  1  0  0  0  0
 13 14  1  0  0  0  0
 14 19  2  0  0  0  0
 14 15  1  0  0  0  0
 15 16  2  0  0  0  0
 15 28  1  0  0  0  0
 16 17  1  0  0  0  0
 16 29  1  0  0  0  0
 17 18  2  0  0  0  0
 17 30  1  0  0  0  0
 18 19  1  0  0  0  0
 18 31  1  0  0  0  0
 19 32  1  0  0  0  0
M  END
$$$$
