ZINC000000006919      none
 OpenBabel11202420153D

 30 31  0  0  0  0  0  0  0  0999 V2000
   30.4608   39.1422   67.1015 C   0  0  0  0  0  0  0  0  0  0  0  0
   30.2850   37.4041   66.6113 S   0  0  0  0  0  0  0  0  0  0  0  0
   28.9156   37.0293   66.5841 O   0  0  0  0  0  0  0  0  0  0  0  0
   31.2525   36.6000   67.2738 O   0  0  0  0  0  0  0  0  0  0  0  0
   30.7785   37.3725   64.9202 C   0  0  0  0  0  0  0  0  0  0  0  0
   30.0935   38.1317   63.9867 C   0  0  0  0  0  0  0  0  0  0  0  0
   29.0484   38.8950   64.3745 F   0  0  0  0  0  0  0  0  0  0  0  0
   30.4771   38.1098   62.6586 C   0  0  0  0  0  0  0  0  0  0  0  0
   31.5550   37.3222   62.2599 C   0  0  0  0  0  0  0  0  0  0  0  0
   31.9704   37.2955   60.8359 C   0  0  0  0  0  0  0  0  0  0  0  0
   32.3749   38.4725   60.2021 C   0  0  0  0  0  0  0  0  0  0  0  0
   32.7568   38.3909   58.8592 C   0  0  0  0  0  0  0  0  0  0  0  0
   33.1984   39.5924   58.1150 C   0  0  0  0  0  0  0  0  0  0  0  0
   33.2372   40.7903   58.7314 N   0  0  0  0  0  0  0  0  0  0  0  0
   33.5259   39.4984   56.9485 O   0  0  0  0  0  0  0  0  0  0  0  0
   32.7076   37.1348   58.2417 C   0  0  0  0  0  0  0  0  0  0  0  0
   33.1679   36.9653   56.5764 Cl  0  0  0  0  0  0  0  0  0  0  0  0
   32.3098   36.0800   58.9291 N   0  0  0  0  0  0  0  0  0  0  0  0
   31.9593   36.1536   60.1609 N   0  0  0  0  0  0  0  0  0  0  0  0
   32.2381   36.5553   63.2016 C   0  0  0  0  0  0  0  0  0  0  0  0
   31.8515   36.5881   64.5285 C   0  0  0  0  0  0  0  0  0  0  0  0
   32.5170   35.8496   65.4435 F   0  0  0  0  0  0  0  0  0  0  0  0
   29.8164   39.7619   66.4780 H   0  0  0  0  0  0  0  0  0  0  0  0
   30.1731   39.2557   68.1468 H   0  0  0  0  0  0  0  0  0  0  0  0
   31.4976   39.4531   66.9741 H   0  0  0  0  0  0  0  0  0  0  0  0
   29.9417   38.7021   61.9313 H   0  0  0  0  0  0  0  0  0  0  0  0
   32.3880   39.4147   60.7299 H   0  0  0  0  0  0  0  0  0  0  0  0
   32.9758   40.8654   59.6626 H   0  0  0  0  0  0  0  0  0  0  0  0
   33.5265   41.5774   58.2439 H   0  0  0  0  0  0  0  0  0  0  0  0
   33.0713   35.9397   62.8960 H   0  0  0  0  0  0  0  0  0  0  0  0
  1  2  1  0  0  0  0
  1 23  1  0  0  0  0
  1 24  1  0  0  0  0
  1 25  1  0  0  0  0
  2  3  2  0  0  0  0
  2  4  2  0  0  0  0
  2  5  1  0  0  0  0
  5 21  2  0  0  0  0
  5  6  1  0  0  0  0
  6  7  1  0  0  0  0
  6  8  2  0  0  0  0
  8  9  1  0  0  0  0
  8 26  1  0  0  0  0
  9 10  1  0  0  0  0
  9 20  2  0  0  0  0
 10 19  2  0  0  0  0
 10 11  1  0  0  0  0
 11 12  2  0  0  0  0
 11 27  1  0  0  0  0
 12 13  1  0  0  0  0
 12 16  1  0  0  0  0
 13 14  1  0  0  0  0
 13 15  2  0  0  0  0
 14 28  1  0  0  0  0
 14 29  1  0  0  0  0
 16 17  1  0  0  0  0
 16 18  2  0  0  0  0
 18 19  1  0  0  0  0
 20 21  1  0  0  0  0
 20 30  1  0  0  0  0
 21 22  1  0  0  0  0
M  END
$$$$
