ZINC000000002171      none
 OpenBabel11202420153D

 21 22  0  0  0  0  0  0  0  0999 V2000
   33.8863   37.7129   55.3481 C   0  0  0  0  0  0  0  0  0  0  0  0
   33.4462   38.0868   56.7401 C   0  0  0  0  0  0  0  0  0  0  0  0
   33.4830   39.3873   57.1429 C   0  0  0  0  0  0  0  0  0  0  0  0
   33.0858   39.7505   58.4266 C   0  0  0  0  0  0  0  0  0  0  0  0
   32.6377   38.8151   59.3156 C   0  0  0  0  0  0  0  0  0  0  0  0
   32.2497   39.1887   60.5626 O   0  0  0  0  0  0  0  0  0  0  0  0
   32.5805   37.4590   58.9316 C   0  0  0  0  0  0  0  0  0  0  0  0
   32.1468   36.5203   59.7775 N   0  0  0  0  0  0  0  0  0  0  0  0
   32.0915   35.2588   59.4256 C   0  0  0  0  0  0  0  0  0  0  0  0
   32.4804   34.8340   58.1567 C   0  0  0  0  0  0  0  0  0  0  0  0
   32.9338   35.7425   57.2434 C   0  0  0  0  0  0  0  0  0  0  0  0
   32.9915   37.0963   57.6256 C   0  0  0  0  0  0  0  0  0  0  0  0
   33.0325   37.7593   54.6723 H   0  0  0  0  0  0  0  0  0  0  0  0
   34.6548   38.4087   55.0111 H   0  0  0  0  0  0  0  0  0  0  0  0
   34.2903   36.7006   55.3544 H   0  0  0  0  0  0  0  0  0  0  0  0
   33.8291   40.1472   56.4578 H   0  0  0  0  0  0  0  0  0  0  0  0
   33.1282   40.7882   58.7228 H   0  0  0  0  0  0  0  0  0  0  0  0
   32.3258   40.1380   60.7304 H   0  0  0  0  0  0  0  0  0  0  0  0
   31.7353   34.5294   60.1379 H   0  0  0  0  0  0  0  0  0  0  0  0
   32.4231   33.7876   57.8958 H   0  0  0  0  0  0  0  0  0  0  0  0
   33.2397   35.4310   56.2555 H   0  0  0  0  0  0  0  0  0  0  0  0
  1  2  1  0  0  0  0
  1 13  1  0  0  0  0
  1 14  1  0  0  0  0
  1 15  1  0  0  0  0
  2 12  2  0  0  0  0
  2  3  1  0  0  0  0
  3  4  2  0  0  0  0
  3 16  1  0  0  0  0
  4  5  1  0  0  0  0
  4 17  1  0  0  0  0
  5  6  1  0  0  0  0
  5  7  2  0  0  0  0
  6 18  1  0  0  0  0
  7 12  1  0  0  0  0
  7  8  1  0  0  0  0
  8  9  2  0  0  0  0
  9 10  1  0  0  0  0
  9 19  1  0  0  0  0
 10 11  2  0  0  0  0
 10 20  1  0  0  0  0
 11 12  1  0  0  0  0
 11 21  1  0  0  0  0
M  END
$$$$
