ZINC000000052691      none
 OpenBabel11202420153D

 32 33  0  0  0  0  0  0  0  0999 V2000
   34.6094   39.5433   54.9329 C   0  0  0  0  0  0  0  0  0  0  0  0
   34.2572   39.9833   56.2460 O   0  0  0  0  0  0  0  0  0  0  0  0
   33.7816   39.0464   57.1021 C   0  0  0  0  0  0  0  0  0  0  0  0
   33.4127   39.3969   58.3958 C   0  0  0  0  0  0  0  0  0  0  0  0
   32.9354   38.4000   59.2411 C   0  0  0  0  0  0  0  0  0  0  0  0
   32.5592   38.7020   60.5446 N   0  0  0  0  0  0  0  0  0  0  0  0
   32.0979   37.7293   61.3555 C   0  0  0  0  0  0  0  0  0  0  0  0
   32.0063   36.5885   60.9451 O   0  0  0  0  0  0  0  0  0  0  0  0
   31.7044   38.0486   62.7406 C   0  0  0  0  0  0  0  0  0  0  0  0
   32.3441   37.4224   63.8159 C   0  0  0  0  0  0  0  0  0  0  0  0
   33.3255   36.5221   63.5894 F   0  0  0  0  0  0  0  0  0  0  0  0
   31.9728   37.7320   65.1109 C   0  0  0  0  0  0  0  0  0  0  0  0
   30.9641   38.6492   65.3448 C   0  0  0  0  0  0  0  0  0  0  0  0
   30.3228   39.2685   64.2878 C   0  0  0  0  0  0  0  0  0  0  0  0
   30.6851   38.9752   62.9866 C   0  0  0  0  0  0  0  0  0  0  0  0
   30.0568   39.5811   61.9554 F   0  0  0  0  0  0  0  0  0  0  0  0
   32.8388   37.1546   58.7826 N   0  0  0  0  0  0  0  0  0  0  0  0
   33.1945   36.8599   57.5435 C   0  0  0  0  0  0  0  0  0  0  0  0
   33.0821   35.5809   57.1119 O   0  0  0  0  0  0  0  0  0  0  0  0
   33.4792   35.3134   55.7655 C   0  0  0  0  0  0  0  0  0  0  0  0
   33.6574   37.7811   56.7143 N   0  0  0  0  0  0  0  0  0  0  0  0
   33.7324   39.1186   54.4445 H   0  0  0  0  0  0  0  0  0  0  0  0
   34.9747   40.3900   54.3517 H   0  0  0  0  0  0  0  0  0  0  0  0
   35.3900   38.7855   55.0009 H   0  0  0  0  0  0  0  0  0  0  0  0
   33.4986   40.4177   58.7380 H   0  0  0  0  0  0  0  0  0  0  0  0
   32.6324   39.6122   60.8719 H   0  0  0  0  0  0  0  0  0  0  0  0
   32.4689   37.2532   65.9423 H   0  0  0  0  0  0  0  0  0  0  0  0
   30.6755   38.8831   66.3589 H   0  0  0  0  0  0  0  0  0  0  0  0
   29.5363   39.9834   64.4795 H   0  0  0  0  0  0  0  0  0  0  0  0
   33.3390   34.2543   55.5490 H   0  0  0  0  0  0  0  0  0  0  0  0
   32.8717   35.9073   55.0827 H   0  0  0  0  0  0  0  0  0  0  0  0
   34.5297   35.5744   55.6377 H   0  0  0  0  0  0  0  0  0  0  0  0
  1  2  1  0  0  0  0
  1 22  1  0  0  0  0
  1 23  1  0  0  0  0
  1 24  1  0  0  0  0
  2  3  1  0  0  0  0
  3 21  2  0  0  0  0
  3  4  1  0  0  0  0
  4  5  2  0  0  0  0
  4 25  1  0  0  0  0
  5  6  1  0  0  0  0
  5 17  1  0  0  0  0
  6  7  1  0  0  0  0
  6 26  1  0  0  0  0
  7  8  2  0  0  0  0
  7  9  1  0  0  0  0
  9 15  2  0  0  0  0
  9 10  1  0  0  0  0
 10 11  1  0  0  0  0
 10 12  2  0  0  0  0
 12 13  1  0  0  0  0
 12 27  1  0  0  0  0
 13 14  2  0  0  0  0
 13 28  1  0  0  0  0
 14 15  1  0  0  0  0
 14 29  1  0  0  0  0
 15 16  1  0  0  0  0
 17 18  2  0  0  0  0
 18 19  1  0  0  0  0
 18 21  1  0  0  0  0
 19 20  1  0  0  0  0
 20 30  1  0  0  0  0
 20 31  1  0  0  0  0
 20 32  1  0  0  0  0
M  END
$$$$
