ZINC000000036892      none
 OpenBabel11202420153D

 38 39  0  0  0  0  0  0  0  0999 V2000
   31.9929   36.6144   62.3858 C   0  0  0  0  0  0  0  0  0  0  0  0
   32.4886   36.7459   61.0520 O   0  0  0  0  0  0  0  0  0  0  0  0
   32.2656   37.9225   60.4286 C   0  0  0  0  0  0  0  0  0  0  0  0
   31.6658   38.8121   61.0038 O   0  0  0  0  0  0  0  0  0  0  0  0
   32.7284   38.1213   59.1084 C   0  0  0  0  0  0  0  0  0  0  0  0
   33.2107   39.6712   58.4477 S   0  0  0  0  0  0  0  0  0  0  0  0
   33.5957   38.9694   56.8813 C   0  0  0  0  0  0  0  0  0  0  0  0
   34.0773   39.5778   55.7154 C   0  0  0  0  0  0  0  0  0  0  0  0
   34.3204   38.8323   54.5859 C   0  0  0  0  0  0  0  0  0  0  0  0
   34.8293   39.4931   53.3628 N   0  0  0  0  0  0  0  0  0  0  0  0
   35.0316   40.6942   53.3586 O   0  0  0  0  0  0  0  0  0  0  0  0
   35.0459   38.8357   52.3606 O   0  0  0  0  0  0  0  0  0  0  0  0
   34.0919   37.4650   54.5868 C   0  0  0  0  0  0  0  0  0  0  0  0
   33.6175   36.8391   55.7213 C   0  0  0  0  0  0  0  0  0  0  0  0
   33.3307   35.1006   55.7109 S   0  0  0  0  0  0  0  0  0  0  0  0
   34.5580   34.4918   54.5218 C   0  0  0  0  0  0  0  0  0  0  0  0
   34.9765   33.0704   54.9034 C   0  0  0  0  0  0  0  0  0  0  0  0
   35.5861   33.0777   56.3067 C   0  0  0  0  0  0  0  0  0  0  0  0
   33.7507   32.1553   54.8845 C   0  0  0  0  0  0  0  0  0  0  0  0
   33.3600   37.5921   56.8976 C   0  0  0  0  0  0  0  0  0  0  0  0
   32.8646   37.1351   58.1834 C   0  0  0  0  0  0  0  0  0  0  0  0
   32.5565   35.8081   58.4446 N   0  0  0  0  0  0  0  0  0  0  0  0
   32.2390   35.6241   62.7689 H   0  0  0  0  0  0  0  0  0  0  0  0
   32.4507   37.3734   63.0202 H   0  0  0  0  0  0  0  0  0  0  0  0
   30.9108   36.7453   62.3858 H   0  0  0  0  0  0  0  0  0  0  0  0
   34.2597   40.6422   55.7035 H   0  0  0  0  0  0  0  0  0  0  0  0
   34.2855   36.8871   53.6952 H   0  0  0  0  0  0  0  0  0  0  0  0
   34.1238   34.4866   53.5219 H   0  0  0  0  0  0  0  0  0  0  0  0
   35.4314   35.1437   54.5351 H   0  0  0  0  0  0  0  0  0  0  0  0
   35.7141   32.7048   54.1889 H   0  0  0  0  0  0  0  0  0  0  0  0
   35.8843   32.0652   56.5785 H   0  0  0  0  0  0  0  0  0  0  0  0
   36.4594   33.7298   56.3201 H   0  0  0  0  0  0  0  0  0  0  0  0
   34.8486   33.4435   57.0213 H   0  0  0  0  0  0  0  0  0  0  0  0
   33.3164   32.1502   53.8848 H   0  0  0  0  0  0  0  0  0  0  0  0
   34.0488   31.1428   55.1563 H   0  0  0  0  0  0  0  0  0  0  0  0
   33.0132   32.5210   55.5990 H   0  0  0  0  0  0  0  0  0  0  0  0
   32.6695   35.1385   57.7519 H   0  0  0  0  0  0  0  0  0  0  0  0
   32.2282   35.5497   59.3200 H   0  0  0  0  0  0  0  0  0  0  0  0
  1  2  1  0  0  0  0
  1 23  1  0  0  0  0
  1 24  1  0  0  0  0
  1 25  1  0  0  0  0
  2  3  1  0  0  0  0
  3  4  2  0  0  0  0
  3  5  1  0  0  0  0
  5 21  2  0  0  0  0
  5  6  1  0  0  0  0
  6  7  1  0  0  0  0
  7 20  2  0  0  0  0
  7  8  1  0  0  0  0
  8  9  2  0  0  0  0
  8 26  1  0  0  0  0
  9 10  1  0  0  0  0
  9 13  1  0  0  0  0
 10 11  2  0  0  0  0
 10 12  2  0  0  0  0
 13 14  2  0  0  0  0
 13 27  1  0  0  0  0
 14 15  1  0  0  0  0
 14 20  1  0  0  0  0
 15 16  1  0  0  0  0
 16 17  1  0  0  0  0
 16 28  1  0  0  0  0
 16 29  1  0  0  0  0
 17 18  1  0  0  0  0
 17 19  1  0  0  0  0
 17 30  1  0  0  0  0
 18 31  1  0  0  0  0
 18 32  1  0  0  0  0
 18 33  1  0  0  0  0
 19 34  1  0  0  0  0
 19 35  1  0  0  0  0
 19 36  1  0  0  0  0
 20 21  1  0  0  0  0
 21 22  1  0  0  0  0
 22 37  1  0  0  0  0
 22 38  1  0  0  0  0
M  END
$$$$
