ZINC000000029782      none
 OpenBabel11202420163D

 25 25  0  0  0  0  0  0  0  0999 V2000
   30.4615   36.0858   63.0754 C   0  0  0  0  0  0  0  0  0  0  0  0
   30.1269   37.2336   62.1206 C   0  0  0  0  0  0  0  0  0  0  0  0
   30.8820   38.4923   62.5520 C   0  0  0  0  0  0  0  0  0  0  0  0
   30.5362   36.8574   60.7199 C   0  0  0  0  0  0  0  0  0  0  0  0
   29.7057   36.8107   59.8373 O   0  0  0  0  0  0  0  0  0  0  0  0
   31.8252   36.5732   60.4479 N   0  0  0  0  0  0  0  0  0  0  0  0
   32.2055   36.2240   59.1469 C   0  0  0  0  0  0  0  0  0  0  0  0
   32.5971   37.2078   58.2489 C   0  0  0  0  0  0  0  0  0  0  0  0
   32.9725   36.8598   56.9649 C   0  0  0  0  0  0  0  0  0  0  0  0
   33.4623   38.0890   55.8414 Cl  0  0  0  0  0  0  0  0  0  0  0  0
   32.9577   35.5320   56.5740 C   0  0  0  0  0  0  0  0  0  0  0  0
   32.5687   34.5502   57.4661 C   0  0  0  0  0  0  0  0  0  0  0  0
   32.1922   34.8919   58.7515 C   0  0  0  0  0  0  0  0  0  0  0  0
   31.7103   33.6575   59.8729 Cl  0  0  0  0  0  0  0  0  0  0  0  0
   30.1655   36.3577   64.0885 H   0  0  0  0  0  0  0  0  0  0  0  0
   29.9236   35.1889   62.7680 H   0  0  0  0  0  0  0  0  0  0  0  0
   31.5340   35.8928   63.0497 H   0  0  0  0  0  0  0  0  0  0  0  0
   29.0545   37.4266   62.1463 H   0  0  0  0  0  0  0  0  0  0  0  0
   30.6435   39.3102   61.8719 H   0  0  0  0  0  0  0  0  0  0  0  0
   30.5859   38.7644   63.5653 H   0  0  0  0  0  0  0  0  0  0  0  0
   31.9545   38.2995   62.5264 H   0  0  0  0  0  0  0  0  0  0  0  0
   32.4896   36.6106   61.1537 H   0  0  0  0  0  0  0  0  0  0  0  0
   32.6081   38.2440   58.5532 H   0  0  0  0  0  0  0  0  0  0  0  0
   33.2511   35.2625   55.5702 H   0  0  0  0  0  0  0  0  0  0  0  0
   32.5589   33.5149   57.1584 H   0  0  0  0  0  0  0  0  0  0  0  0
  1  2  1  0  0  0  0
  1 15  1  0  0  0  0
  1 16  1  0  0  0  0
  1 17  1  0  0  0  0
  2  3  1  0  0  0  0
  2  4  1  0  0  0  0
  2 18  1  0  0  0  0
  3 19  1  0  0  0  0
  3 20  1  0  0  0  0
  3 21  1  0  0  0  0
  4  5  2  0  0  0  0
  4  6  1  0  0  0  0
  6  7  1  0  0  0  0
  6 22  1  0  0  0  0
  7 13  2  0  0  0  0
  7  8  1  0  0  0  0
  8  9  2  0  0  0  0
  8 23  1  0  0  0  0
  9 10  1  0  0  0  0
  9 11  1  0  0  0  0
 11 12  2  0  0  0  0
 11 24  1  0  0  0  0
 12 13  1  0  0  0  0
 12 25  1  0  0  0  0
 13 14  1  0  0  0  0
M  END
$$$$
