ZINC000000006220      none
 OpenBabel11202420153D

 30 30  0  0  1  0  0  0  0  0999 V2000
   29.5423   40.3049   66.4564 C   0  0  0  0  0  0  0  0  0  0  0  0
   30.0809   38.9292   66.0587 C   0  0  0  0  0  0  0  0  0  0  0  0
   31.2719   38.5707   66.9498 C   0  0  0  0  0  0  0  0  0  0  0  0
   31.8025   37.2158   66.5581 C   0  0  0  0  0  0  0  0  0  0  0  0
   31.3665   36.2209   67.0861 O   0  0  0  0  0  0  0  0  0  0  0  0
   32.8769   37.1021   65.5077 C   0  0  0  0  0  0  0  0  0  0  0  0
   32.3688   36.2721   64.3569 C   0  0  0  0  0  0  0  0  0  0  0  0
   33.1424   35.6084   63.6998 O   0  0  0  0  0  0  0  0  0  0  0  0
   31.0546   36.2676   64.0581 N   0  0  0  0  0  0  0  0  0  0  0  0
   30.5605   35.4607   62.9396 C   0  0  2  0  0  0  0  0  0  0  0  0
   30.7863   34.4069   63.1033 H   0  0  0  0  0  0  0  0  0  0  0  0
   31.1820   35.9444   61.6107 C   0  0  0  0  0  0  0  0  0  0  0  0
   29.9515   36.3924   60.7933 C   0  0  0  0  0  0  0  0  0  0  0  0
   28.8843   36.5594   61.7748 O   0  0  0  0  0  0  0  0  0  0  0  0
   29.0696   35.6624   62.7606 C   0  0  0  0  0  0  0  0  0  0  0  0
   28.1987   35.1129   63.3925 O   0  0  0  0  0  0  0  0  0  0  0  0
   30.3265   41.0518   66.3326 H   0  0  0  0  0  0  0  0  0  0  0  0
   28.6938   40.5603   65.8216 H   0  0  0  0  0  0  0  0  0  0  0  0
   29.2228   40.2829   67.4982 H   0  0  0  0  0  0  0  0  0  0  0  0
   30.4003   38.9513   65.0168 H   0  0  0  0  0  0  0  0  0  0  0  0
   29.2967   38.1823   66.1825 H   0  0  0  0  0  0  0  0  0  0  0  0
   32.0561   39.3177   66.8260 H   0  0  0  0  0  0  0  0  0  0  0  0
   30.9524   38.5486   67.9917 H   0  0  0  0  0  0  0  0  0  0  0  0
   33.1412   38.0970   65.1492 H   0  0  0  0  0  0  0  0  0  0  0  0
   33.7574   36.6254   65.9385 H   0  0  0  0  0  0  0  0  0  0  0  0
   30.4358   36.7985   64.5836 H   0  0  0  0  0  0  0  0  0  0  0  0
   31.8561   36.7834   61.7835 H   0  0  0  0  0  0  0  0  0  0  0  0
   31.7017   35.1283   61.1088 H   0  0  0  0  0  0  0  0  0  0  0  0
   30.1548   37.3380   60.2906 H   0  0  0  0  0  0  0  0  0  0  0  0
   29.6819   35.6276   60.0650 H   0  0  0  0  0  0  0  0  0  0  0  0
  1  2  1  0  0  0  0
  1 17  1  0  0  0  0
  1 18  1  0  0  0  0
  1 19  1  0  0  0  0
  2  3  1  0  0  0  0
  2 20  1  0  0  0  0
  2 21  1  0  0  0  0
  3  4  1  0  0  0  0
  3 22  1  0  0  0  0
  3 23  1  0  0  0  0
  4  5  2  0  0  0  0
  4  6  1  0  0  0  0
  6  7  1  0  0  0  0
  6 24  1  0  0  0  0
  6 25  1  0  0  0  0
  7  8  2  0  0  0  0
  7  9  1  0  0  0  0
  9 10  1  0  0  0  0
  9 26  1  0  0  0  0
 10 11  1  1  0  0  0
 10 15  1  0  0  0  0
 10 12  1  0  0  0  0
 12 13  1  0  0  0  0
 12 27  1  0  0  0  0
 12 28  1  0  0  0  0
 13 14  1  0  0  0  0
 13 29  1  0  0  0  0
 13 30  1  0  0  0  0
 14 15  1  0  0  0  0
 15 16  2  0  0  0  0
M  END
$$$$
