ZINC000000022952      none
 OpenBabel11202420153D

 28 30  0  0  1  0  0  0  0  0999 V2000
   32.3931   39.0405   60.3552 N   0  0  0  0  0  0  0  0  0  0  0  0
   32.7369   38.6143   59.0969 C   0  0  0  0  0  0  0  0  0  0  0  0
   32.6061   37.3413   58.7961 N   0  0  0  0  0  0  0  0  0  0  0  0
   32.9291   36.8808   57.5825 C   0  0  0  0  0  0  0  0  0  0  0  0
   33.4153   37.7645   56.6119 C   0  0  0  0  0  0  0  0  0  0  0  0
   33.6537   37.0411   55.4907 N   0  0  0  0  0  0  0  0  0  0  0  0
   33.3577   35.7934   55.7102 C   0  0  0  0  0  0  0  0  0  0  0  0
   32.9017   35.6442   56.9907 N   0  0  0  0  0  0  0  0  0  0  0  0
   32.4852   34.4529   57.5857 C   0  0  0  0  0  0  0  0  0  0  0  0
   32.0665   34.4517   58.8359 C   0  0  0  0  0  0  0  0  0  0  0  0
   31.5313   33.6966   60.0251 C   0  0  0  0  0  0  0  0  0  0  0  0
   31.7830   35.2034   60.1109 C   0  0  2  0  0  0  0  0  0  0  0  0
   32.6372   35.5350   60.7011 H   0  0  0  0  0  0  0  0  0  0  0  0
   30.5654   36.1297   60.1305 C   0  0  0  0  0  0  0  0  0  0  0  0
   30.7062   37.0791   61.1892 O   0  0  0  0  0  0  0  0  0  0  0  0
   33.5511   39.1317   56.9488 C   0  0  0  0  0  0  0  0  0  0  0  0
   33.9700   39.9370   56.1349 O   0  0  0  0  0  0  0  0  0  0  0  0
   33.2045   39.5230   58.1949 N   0  0  0  0  0  0  0  0  0  0  0  0
   33.2887   40.4554   58.4489 H   0  0  0  0  0  0  0  0  0  0  0  0
   32.4844   39.9767   60.5920 H   0  0  0  0  0  0  0  0  0  0  0  0
   32.0588   38.4055   61.0079 H   0  0  0  0  0  0  0  0  0  0  0  0
   33.4534   34.9959   54.9881 H   0  0  0  0  0  0  0  0  0  0  0  0
   32.5059   33.5318   57.0222 H   0  0  0  0  0  0  0  0  0  0  0  0
   30.4967   33.3562   59.9821 H   0  0  0  0  0  0  0  0  0  0  0  0
   32.2208   33.0430   60.5593 H   0  0  0  0  0  0  0  0  0  0  0  0
   30.4934   36.6553   59.1783 H   0  0  0  0  0  0  0  0  0  0  0  0
   29.6627   35.5398   60.2892 H   0  0  0  0  0  0  0  0  0  0  0  0
   30.7761   36.6811   62.0678 H   0  0  0  0  0  0  0  0  0  0  0  0
  1  2  1  0  0  0  0
  1 20  1  0  0  0  0
  1 21  1  0  0  0  0
  2 18  1  0  0  0  0
  2  3  2  0  0  0  0
  3  4  1  0  0  0  0
  4  8  1  0  0  0  0
  4  5  2  0  0  0  0
  5  6  1  0  0  0  0
  5 16  1  0  0  0  0
  6  7  2  0  0  0  0
  7  8  1  0  0  0  0
  7 22  1  0  0  0  0
  8  9  1  0  0  0  0
  9 10  2  0  0  0  0
  9 23  1  0  0  0  0
 10 12  1  0  0  0  0
 10 11  1  0  0  0  0
 11 12  1  0  0  0  0
 11 24  1  0  0  0  0
 11 25  1  0  0  0  0
 12 13  1  1  0  0  0
 12 14  1  0  0  0  0
 14 15  1  0  0  0  0
 14 26  1  0  0  0  0
 14 27  1  0  0  0  0
 15 28  1  0  0  0  0
 16 17  2  0  0  0  0
 16 18  1  0  0  0  0
 18 19  1  0  0  0  0
M  END
$$$$
