ZINC000000025696      none
 OpenBabel11202420153D

 19 19  0  0  0  0  0  0  0  0999 V2000
   34.5340   33.2776   56.4778 C   0  0  0  0  0  0  0  0  0  0  0  0
   32.9063   33.9221   56.0181 S   0  0  0  0  0  0  0  0  0  0  0  0
   33.0369   35.5617   56.6498 C   0  0  0  0  0  0  0  0  0  0  0  0
   32.6552   35.8021   57.8985 N   0  0  0  0  0  0  0  0  0  0  0  0
   32.7395   37.0152   58.4171 C   0  0  0  0  0  0  0  0  0  0  0  0
   32.2415   37.3096   60.0538 Cl  0  0  0  0  0  0  0  0  0  0  0  0
   33.2318   38.0610   57.6251 C   0  0  0  0  0  0  0  0  0  0  0  0
   33.3360   39.3914   58.1446 C   0  0  0  0  0  0  0  0  0  0  0  0
   33.4186   40.4467   58.5567 N   0  0  0  0  0  0  0  0  0  0  0  0
   33.6280   37.7652   56.3022 C   0  0  0  0  0  0  0  0  0  0  0  0
   34.2630   39.0297   55.2523 S   0  0  0  0  0  0  0  0  0  0  0  0
   34.5773   38.0653   53.7534 C   0  0  0  0  0  0  0  0  0  0  0  0
   33.5137   36.5163   55.8636 N   0  0  0  0  0  0  0  0  0  0  0  0
   34.6204   32.2416   56.1500 H   0  0  0  0  0  0  0  0  0  0  0  0
   35.3098   33.8758   56.0001 H   0  0  0  0  0  0  0  0  0  0  0  0
   34.6519   33.3272   57.5603 H   0  0  0  0  0  0  0  0  0  0  0  0
   33.6441   37.6251   53.4021 H   0  0  0  0  0  0  0  0  0  0  0  0
   34.9851   38.7171   52.9807 H   0  0  0  0  0  0  0  0  0  0  0  0
   35.2923   37.2726   53.9745 H   0  0  0  0  0  0  0  0  0  0  0  0
  1  2  1  0  0  0  0
  1 14  1  0  0  0  0
  1 15  1  0  0  0  0
  1 16  1  0  0  0  0
  2  3  1  0  0  0  0
  3 13  2  0  0  0  0
  3  4  1  0  0  0  0
  4  5  2  0  0  0  0
  5  6  1  0  0  0  0
  5  7  1  0  0  0  0
  7  8  1  0  0  0  0
  7 10  2  0  0  0  0
  8  9  3  0  0  0  0
 10 11  1  0  0  0  0
 10 13  1  0  0  0  0
 11 12  1  0  0  0  0
 12 17  1  0  0  0  0
 12 18  1  0  0  0  0
 12 19  1  0  0  0  0
M  END
$$$$
