ZINC000000009390      none
 OpenBabel11202420153D

 27 27  0  0  0  0  0  0  0  0999 V2000
   29.0304   36.6348   60.7755 C   0  0  0  0  0  0  0  0  0  0  0  0
   30.1916   37.1437   60.0680 O   0  0  0  0  0  0  0  0  0  0  0  0
   31.2023   37.6148   60.8153 C   0  0  0  0  0  0  0  0  0  0  0  0
   31.1193   37.6023   62.0205 O   0  0  0  0  0  0  0  0  0  0  0  0
   32.4405   38.1594   60.1508 C   0  0  0  0  0  0  0  0  0  0  0  0
   32.6529   37.4712   58.8750 N   0  0  0  0  0  0  0  0  0  0  0  0
   32.9714   38.0894   57.7005 C   0  0  0  0  0  0  0  0  0  0  0  0
   33.1568   39.5736   57.5170 C   0  0  0  0  0  0  0  0  0  0  0  0
   33.0966   37.1637   56.7348 C   0  0  0  0  0  0  0  0  0  0  0  0
   32.8223   35.8665   57.3671 C   0  0  0  0  0  0  0  0  0  0  0  0
   32.8294   34.5513   56.7227 C   0  0  0  0  0  0  0  0  0  0  0  0
   32.5826   33.5562   57.3717 O   0  0  0  0  0  0  0  0  0  0  0  0
   32.5558   36.1420   58.6951 C   0  0  0  0  0  0  0  0  0  0  0  0
   32.2154   35.1285   59.7572 C   0  0  0  0  0  0  0  0  0  0  0  0
   29.3303   35.8069   61.4180 H   0  0  0  0  0  0  0  0  0  0  0  0
   28.5989   37.4292   61.3843 H   0  0  0  0  0  0  0  0  0  0  0  0
   28.2901   36.2862   60.0553 H   0  0  0  0  0  0  0  0  0  0  0  0
   32.3166   39.2274   59.9713 H   0  0  0  0  0  0  0  0  0  0  0  0
   33.3018   37.9973   60.7988 H   0  0  0  0  0  0  0  0  0  0  0  0
   34.2006   39.8338   57.6924 H   0  0  0  0  0  0  0  0  0  0  0  0
   32.8789   39.8514   56.5003 H   0  0  0  0  0  0  0  0  0  0  0  0
   32.5249   40.1090   58.2256 H   0  0  0  0  0  0  0  0  0  0  0  0
   33.3449   37.3390   55.6984 H   0  0  0  0  0  0  0  0  0  0  0  0
   33.0543   34.4672   55.6697 H   0  0  0  0  0  0  0  0  0  0  0  0
   31.1351   34.9871   59.7915 H   0  0  0  0  0  0  0  0  0  0  0  0
   32.6987   34.1801   59.5227 H   0  0  0  0  0  0  0  0  0  0  0  0
   32.5661   35.4854   60.7256 H   0  0  0  0  0  0  0  0  0  0  0  0
  1  2  1  0  0  0  0
  1 15  1  0  0  0  0
  1 16  1  0  0  0  0
  1 17  1  0  0  0  0
  2  3  1  0  0  0  0
  3  4  2  0  0  0  0
  3  5  1  0  0  0  0
  5  6  1  0  0  0  0
  5 18  1  0  0  0  0
  5 19  1  0  0  0  0
  6 13  1  0  0  0  0
  6  7  1  0  0  0  0
  7  8  1  0  0  0  0
  7  9  2  0  0  0  0
  8 20  1  0  0  0  0
  8 21  1  0  0  0  0
  8 22  1  0  0  0  0
  9 10  1  0  0  0  0
  9 23  1  0  0  0  0
 10 11  1  0  0  0  0
 10 13  2  0  0  0  0
 11 12  2  0  0  0  0
 11 24  1  0  0  0  0
 13 14  1  0  0  0  0
 14 25  1  0  0  0  0
 14 26  1  0  0  0  0
 14 27  1  0  0  0  0
M  END
$$$$
