ZINC000000000765      none
 OpenBabel11202420153D

 28 29  0  0  1  0  0  0  0  0999 V2000
   33.8755   37.5089   56.3190 O   0  0  0  0  0  0  0  0  0  0  0  0
   33.3600   36.6113   56.9548 C   0  0  0  0  0  0  0  0  0  0  0  0
   33.3368   35.3600   56.4564 O   0  0  0  0  0  0  0  0  0  0  0  0
   33.9465   35.1578   55.1543 C   0  0  0  0  0  0  0  0  0  0  0  0
   33.8242   33.6853   54.7570 C   0  0  2  0  0  0  0  0  0  0  0  0
   32.7755   33.3922   54.7079 H   0  0  0  0  0  0  0  0  0  0  0  0
   34.5857   32.7922   55.7615 C   0  0  0  0  0  0  0  0  0  0  0  0
   35.2001   31.6791   54.8835 C   0  0  0  0  0  0  0  0  0  0  0  0
   34.7371   32.0314   53.4524 C   0  0  0  0  0  0  0  0  0  0  0  0
   34.4715   33.4517   53.4873 O   0  0  0  0  0  0  0  0  0  0  0  0
   32.7587   36.8919   58.2746 C   0  0  0  0  0  0  0  0  0  0  0  0
   32.1609   35.8658   59.0176 C   0  0  0  0  0  0  0  0  0  0  0  0
   31.6119   36.1813   60.2475 C   0  0  0  0  0  0  0  0  0  0  0  0
   31.6702   37.4875   60.7003 C   0  0  0  0  0  0  0  0  0  0  0  0
   32.2353   38.4347   59.9765 N   0  0  0  0  0  0  0  0  0  0  0  0
   32.7762   38.1838   58.8024 C   0  0  0  0  0  0  0  0  0  0  0  0
   33.4383   35.7769   54.4150 H   0  0  0  0  0  0  0  0  0  0  0  0
   34.9996   35.4358   55.1989 H   0  0  0  0  0  0  0  0  0  0  0  0
   35.3698   33.3615   56.2606 H   0  0  0  0  0  0  0  0  0  0  0  0
   33.8976   32.3665   56.4919 H   0  0  0  0  0  0  0  0  0  0  0  0
   36.2880   31.6982   54.9485 H   0  0  0  0  0  0  0  0  0  0  0  0
   34.8158   30.7031   55.1798 H   0  0  0  0  0  0  0  0  0  0  0  0
   35.5256   31.8099   52.7332 H   0  0  0  0  0  0  0  0  0  0  0  0
   33.8288   31.4834   53.2017 H   0  0  0  0  0  0  0  0  0  0  0  0
   32.1291   34.8545   58.6397 H   0  0  0  0  0  0  0  0  0  0  0  0
   31.1430   35.4160   60.8483 H   0  0  0  0  0  0  0  0  0  0  0  0
   31.2419   37.7365   61.6600 H   0  0  0  0  0  0  0  0  0  0  0  0
   33.2338   38.9852   58.2414 H   0  0  0  0  0  0  0  0  0  0  0  0
  1  2  2  0  0  0  0
  2  3  1  0  0  0  0
  2 11  1  0  0  0  0
  3  4  1  0  0  0  0
  4  5  1  0  0  0  0
  4 17  1  0  0  0  0
  4 18  1  0  0  0  0
  5  6  1  6  0  0  0
  5 10  1  0  0  0  0
  5  7  1  0  0  0  0
  7  8  1  0  0  0  0
  7 19  1  0  0  0  0
  7 20  1  0  0  0  0
  8  9  1  0  0  0  0
  8 21  1  0  0  0  0
  8 22  1  0  0  0  0
  9 10  1  0  0  0  0
  9 23  1  0  0  0  0
  9 24  1  0  0  0  0
 11 16  2  0  0  0  0
 11 12  1  0  0  0  0
 12 13  2  0  0  0  0
 12 25  1  0  0  0  0
 13 14  1  0  0  0  0
 13 26  1  0  0  0  0
 14 15  2  0  0  0  0
 14 27  1  0  0  0  0
 15 16  1  0  0  0  0
 16 28  1  0  0  0  0
M  END
$$$$
