ZINC000000053153      none
 OpenBabel11202420153D

 26 27  0  0  0  0  0  0  0  0999 V2000
   29.2806   35.9449   65.5355 C   0  0  0  0  0  0  0  0  0  0  0  0
   29.1221   37.4011   65.5167 N   0  0  0  0  0  0  0  0  0  0  0  0
   28.8644   38.2110   66.6000 C   0  0  0  0  0  0  0  0  0  0  0  0
   28.7957   39.4716   66.1394 C   0  0  0  0  0  0  0  0  0  0  0  0
   29.0094   39.4495   64.8131 N   0  0  0  0  0  0  0  0  0  0  0  0
   29.2014   38.2103   64.4250 C   0  0  0  0  0  0  0  0  0  0  0  0
   29.5157   37.6845   62.7730 S   0  0  0  0  0  0  0  0  0  0  0  0
   31.0375   38.6040   62.4345 C   0  0  0  0  0  0  0  0  0  0  0  0
   31.5064   38.3014   61.0347 C   0  0  0  0  0  0  0  0  0  0  0  0
   31.2679   37.2222   60.5352 O   0  0  0  0  0  0  0  0  0  0  0  0
   32.1959   39.2279   60.3399 N   0  0  0  0  0  0  0  0  0  0  0  0
   32.6334   38.9467   59.0509 C   0  0  0  0  0  0  0  0  0  0  0  0
   33.3015   39.7641   58.2987 N   0  0  0  0  0  0  0  0  0  0  0  0
   33.6414   39.3301   57.0994 C   0  0  0  0  0  0  0  0  0  0  0  0
   33.2323   38.0908   56.8212 C   0  0  0  0  0  0  0  0  0  0  0  0
   32.3625   37.4750   58.2240 S   0  0  0  0  0  0  0  0  0  0  0  0
   30.3296   35.6956   65.6964 H   0  0  0  0  0  0  0  0  0  0  0  0
   28.6796   35.5244   66.3417 H   0  0  0  0  0  0  0  0  0  0  0  0
   28.9509   35.5312   64.5825 H   0  0  0  0  0  0  0  0  0  0  0  0
   28.7413   37.8936   67.6249 H   0  0  0  0  0  0  0  0  0  0  0  0
   28.6059   40.3526   66.7346 H   0  0  0  0  0  0  0  0  0  0  0  0
   31.8070   38.3080   63.1475 H   0  0  0  0  0  0  0  0  0  0  0  0
   30.8451   39.6726   62.5303 H   0  0  0  0  0  0  0  0  0  0  0  0
   32.3866   40.0910   60.7395 H   0  0  0  0  0  0  0  0  0  0  0  0
   34.2010   39.9313   56.3980 H   0  0  0  0  0  0  0  0  0  0  0  0
   33.4039   37.5584   55.8974 H   0  0  0  0  0  0  0  0  0  0  0  0
  1  2  1  0  0  0  0
  1 17  1  0  0  0  0
  1 18  1  0  0  0  0
  1 19  1  0  0  0  0
  2  6  1  0  0  0  0
  2  3  1  0  0  0  0
  3  4  2  0  0  0  0
  3 20  1  0  0  0  0
  4  5  1  0  0  0  0
  4 21  1  0  0  0  0
  5  6  2  0  0  0  0
  6  7  1  0  0  0  0
  7  8  1  0  0  0  0
  8  9  1  0  0  0  0
  8 22  1  0  0  0  0
  8 23  1  0  0  0  0
  9 10  2  0  0  0  0
  9 11  1  0  0  0  0
 11 12  1  0  0  0  0
 11 24  1  0  0  0  0
 12 16  1  0  0  0  0
 12 13  2  0  0  0  0
 13 14  1  0  0  0  0
 14 15  2  0  0  0  0
 14 25  1  0  0  0  0
 15 16  1  0  0  0  0
 15 26  1  0  0  0  0
M  END
$$$$
