ZINC000000010177      none
 OpenBabel11202420153D

 27 28  0  0  1  0  0  0  0  0999 V2000
   30.7958   33.6103   58.5495 C   0  0  0  0  0  0  0  0  0  0  0  0
   32.0098   34.1864   59.2809 C   0  0  1  0  0  0  0  0  0  0  0  0
   32.8517   33.5009   59.1835 H   0  0  0  0  0  0  0  0  0  0  0  0
   32.3742   35.5185   58.6777 C   0  0  0  0  0  0  0  0  0  0  0  0
   32.7053   35.6879   57.4536 N   0  0  0  0  0  0  0  0  0  0  0  0
   33.0065   36.9370   57.0506 C   0  0  0  0  0  0  0  0  0  0  0  0
   33.3973   37.4029   55.7788 C   0  0  0  0  0  0  0  0  0  0  0  0
   33.6593   38.7242   55.5790 C   0  0  0  0  0  0  0  0  0  0  0  0
   33.5477   39.6357   56.6197 C   0  0  0  0  0  0  0  0  0  0  0  0
   33.1686   39.2092   57.8724 C   0  0  0  0  0  0  0  0  0  0  0  0
   32.8961   37.8611   58.0953 C   0  0  0  0  0  0  0  0  0  0  0  0
   32.3897   36.9910   59.5400 S   0  0  0  0  0  0  0  0  0  0  0  0
   31.6866   34.3644   60.6987 N   0  0  0  0  0  0  0  0  0  0  0  0
   30.6214   35.2157   61.0805 O   0  0  0  0  0  0  0  0  0  0  0  0
   32.4031   33.7179   61.6395 C   0  0  0  0  0  0  0  0  0  0  0  0
   32.1021   33.8775   62.9436 N   0  0  0  0  0  0  0  0  0  0  0  0
   33.3177   32.9870   61.3117 O   0  0  0  0  0  0  0  0  0  0  0  0
   30.5322   32.6467   58.9859 H   0  0  0  0  0  0  0  0  0  0  0  0
   29.9539   34.2957   58.6470 H   0  0  0  0  0  0  0  0  0  0  0  0
   31.0363   33.4778   57.4946 H   0  0  0  0  0  0  0  0  0  0  0  0
   33.4891   36.7075   54.9576 H   0  0  0  0  0  0  0  0  0  0  0  0
   33.9569   39.0669   54.5990 H   0  0  0  0  0  0  0  0  0  0  0  0
   33.7590   40.6806   56.4465 H   0  0  0  0  0  0  0  0  0  0  0  0
   33.0824   39.9190   58.6818 H   0  0  0  0  0  0  0  0  0  0  0  0
   30.1669   35.6348   60.3370 H   0  0  0  0  0  0  0  0  0  0  0  0
   32.6153   33.4090   63.6205 H   0  0  0  0  0  0  0  0  0  0  0  0
   31.3726   34.4607   63.2052 H   0  0  0  0  0  0  0  0  0  0  0  0
  1  2  1  0  0  0  0
  1 18  1  0  0  0  0
  1 19  1  0  0  0  0
  1 20  1  0  0  0  0
  2  3  1  6  0  0  0
  2  4  1  0  0  0  0
  2 13  1  0  0  0  0
  4 12  1  0  0  0  0
  4  5  2  0  0  0  0
  5  6  1  0  0  0  0
  6 11  2  0  0  0  0
  6  7  1  0  0  0  0
  7  8  2  0  0  0  0
  7 21  1  0  0  0  0
  8  9  1  0  0  0  0
  8 22  1  0  0  0  0
  9 10  2  0  0  0  0
  9 23  1  0  0  0  0
 10 11  1  0  0  0  0
 10 24  1  0  0  0  0
 11 12  1  0  0  0  0
 13 14  1  0  0  0  0
 13 15  1  0  0  0  0
 14 25  1  0  0  0  0
 15 16  1  0  0  0  0
 15 17  2  0  0  0  0
 16 26  1  0  0  0  0
 16 27  1  0  0  0  0
M  END
$$$$
