ZINC000000045236      none
 OpenBabel11202420153D

 40 41  0  0  0  0  0  0  0  0999 V2000
   27.8217   38.8781   69.3449 C   0  0  0  0  0  0  0  0  0  0  0  0
   27.0457   39.3303   68.1062 C   0  0  0  0  0  0  0  0  0  0  0  0
   27.8136   40.8257   67.4243 S   0  0  0  0  0  0  0  0  0  0  0  0
   27.9772   41.8085   68.4375 O   0  0  0  0  0  0  0  0  0  0  0  0
   27.2340   41.1562   66.1697 O   0  0  0  0  0  0  0  0  0  0  0  0
   29.4581   40.3333   67.0270 C   0  0  0  0  0  0  0  0  0  0  0  0
   30.4629   40.4616   67.9683 C   0  0  0  0  0  0  0  0  0  0  0  0
   31.7549   40.0766   67.6626 C   0  0  0  0  0  0  0  0  0  0  0  0
   32.0464   39.5606   66.4101 C   0  0  0  0  0  0  0  0  0  0  0  0
   33.3168   39.1819   66.1078 O   0  0  0  0  0  0  0  0  0  0  0  0
   31.0346   39.4311   65.4614 C   0  0  0  0  0  0  0  0  0  0  0  0
   31.3235   38.9098   64.1931 N   0  0  0  0  0  0  0  0  0  0  0  0
   30.3789   38.2304   63.5128 C   0  0  0  0  0  0  0  0  0  0  0  0
   29.2789   38.0703   63.9984 O   0  0  0  0  0  0  0  0  0  0  0  0
   30.6894   37.6696   62.1489 C   0  0  0  0  0  0  0  0  0  0  0  0
   31.6618   38.4951   61.5046 O   0  0  0  0  0  0  0  0  0  0  0  0
   32.0549   38.1263   60.2571 C   0  0  0  0  0  0  0  0  0  0  0  0
   32.4574   39.0887   59.3425 C   0  0  0  0  0  0  0  0  0  0  0  0
   32.8571   38.7112   58.0752 C   0  0  0  0  0  0  0  0  0  0  0  0
   32.8565   37.3754   57.7180 C   0  0  0  0  0  0  0  0  0  0  0  0
   32.4553   36.4144   58.6276 C   0  0  0  0  0  0  0  0  0  0  0  0
   32.0548   36.7868   59.8962 C   0  0  0  0  0  0  0  0  0  0  0  0
   29.7417   39.8249   65.7736 C   0  0  0  0  0  0  0  0  0  0  0  0
   28.8539   38.6628   69.0686 H   0  0  0  0  0  0  0  0  0  0  0  0
   27.8037   39.6697   70.0939 H   0  0  0  0  0  0  0  0  0  0  0  0
   27.3602   37.9795   69.7547 H   0  0  0  0  0  0  0  0  0  0  0  0
   26.0136   39.5456   68.3826 H   0  0  0  0  0  0  0  0  0  0  0  0
   27.0638   38.5386   67.3571 H   0  0  0  0  0  0  0  0  0  0  0  0
   30.2377   40.8639   68.9450 H   0  0  0  0  0  0  0  0  0  0  0  0
   32.5374   40.1785   68.3999 H   0  0  0  0  0  0  0  0  0  0  0  0
   33.9476   39.3100   66.8294 H   0  0  0  0  0  0  0  0  0  0  0  0
   32.2031   39.0380   63.8049 H   0  0  0  0  0  0  0  0  0  0  0  0
   29.7789   37.6456   61.5501 H   0  0  0  0  0  0  0  0  0  0  0  0
   31.0827   36.6584   62.2529 H   0  0  0  0  0  0  0  0  0  0  0  0
   32.4542   40.1325   59.6197 H   0  0  0  0  0  0  0  0  0  0  0  0
   33.1707   39.4599   57.3629 H   0  0  0  0  0  0  0  0  0  0  0  0
   33.1693   37.0822   56.7267 H   0  0  0  0  0  0  0  0  0  0  0  0
   32.4554   35.3717   58.3461 H   0  0  0  0  0  0  0  0  0  0  0  0
   31.7415   36.0358   60.6063 H   0  0  0  0  0  0  0  0  0  0  0  0
   28.9559   39.7303   65.0387 H   0  0  0  0  0  0  0  0  0  0  0  0
  1  2  1  0  0  0  0
  1 24  1  0  0  0  0
  1 25  1  0  0  0  0
  1 26  1  0  0  0  0
  2  3  1  0  0  0  0
  2 27  1  0  0  0  0
  2 28  1  0  0  0  0
  3  4  2  0  0  0  0
  3  5  2  0  0  0  0
  3  6  1  0  0  0  0
  6 23  2  0  0  0  0
  6  7  1  0  0  0  0
  7  8  2  0  0  0  0
  7 29  1  0  0  0  0
  8  9  1  0  0  0  0
  8 30  1  0  0  0  0
  9 10  1  0  0  0  0
  9 11  2  0  0  0  0
 10 31  1  0  0  0  0
 11 12  1  0  0  0  0
 11 23  1  0  0  0  0
 12 13  1  0  0  0  0
 12 32  1  0  0  0  0
 13 14  2  0  0  0  0
 13 15  1  0  0  0  0
 15 16  1  0  0  0  0
 15 33  1  0  0  0  0
 15 34  1  0  0  0  0
 16 17  1  0  0  0  0
 17 22  2  0  0  0  0
 17 18  1  0  0  0  0
 18 19  2  0  0  0  0
 18 35  1  0  0  0  0
 19 20  1  0  0  0  0
 19 36  1  0  0  0  0
 20 21  2  0  0  0  0
 20 37  1  0  0  0  0
 21 22  1  0  0  0  0
 21 38  1  0  0  0  0
 22 39  1  0  0  0  0
 23 40  1  0  0  0  0
M  END
$$$$
