ZINC000000019890      none
 OpenBabel11202420153D

 38 39  0  0  0  0  0  0  0  0999 V2000
   30.3907   36.8237   60.5740 C   0  0  0  0  0  0  0  0  0  0  0  0
   30.5536   35.4209   59.9852 C   0  0  0  0  0  0  0  0  0  0  0  0
   31.9800   35.0737   59.9347 N   0  0  0  0  0  0  0  0  0  0  0  0
   32.2749   33.9305   60.8088 C   0  0  0  0  0  0  0  0  0  0  0  0
   31.8160   34.2462   62.2337 C   0  0  0  0  0  0  0  0  0  0  0  0
   32.3821   34.8221   58.6390 C   0  0  0  0  0  0  0  0  0  0  0  0
   32.3177   33.5989   58.1315 N   0  0  0  0  0  0  0  0  0  0  0  0
   32.7051   33.3441   56.8914 C   0  0  0  0  0  0  0  0  0  0  0  0
   33.1634   34.2693   56.0826 N   0  0  0  0  0  0  0  0  0  0  0  0
   33.2652   35.5422   56.4930 C   0  0  0  0  0  0  0  0  0  0  0  0
   33.7529   36.5574   55.6504 C   0  0  0  0  0  0  0  0  0  0  0  0
   34.1375   36.2642   54.3807 O   0  0  0  0  0  0  0  0  0  0  0  0
   34.6224   37.3465   53.5835 C   0  0  0  0  0  0  0  0  0  0  0  0
   33.8387   37.8396   56.1147 C   0  0  0  0  0  0  0  0  0  0  0  0
   33.4477   38.1589   57.4162 C   0  0  0  0  0  0  0  0  0  0  0  0
   33.5437   39.4431   57.8510 O   0  0  0  0  0  0  0  0  0  0  0  0
   33.1279   39.7067   59.1926 C   0  0  0  0  0  0  0  0  0  0  0  0
   32.9658   37.1857   58.2650 C   0  0  0  0  0  0  0  0  0  0  0  0
   32.8688   35.8645   57.8130 C   0  0  0  0  0  0  0  0  0  0  0  0
   30.8058   36.8453   61.5815 H   0  0  0  0  0  0  0  0  0  0  0  0
   30.9179   37.5438   59.9482 H   0  0  0  0  0  0  0  0  0  0  0  0
   29.3322   37.0813   60.6115 H   0  0  0  0  0  0  0  0  0  0  0  0
   30.1383   35.3992   58.9777 H   0  0  0  0  0  0  0  0  0  0  0  0
   30.0263   34.7008   60.6111 H   0  0  0  0  0  0  0  0  0  0  0  0
   31.7480   33.0489   60.4441 H   0  0  0  0  0  0  0  0  0  0  0  0
   33.3480   33.7390   60.8068 H   0  0  0  0  0  0  0  0  0  0  0  0
   30.7314   34.3537   62.2506 H   0  0  0  0  0  0  0  0  0  0  0  0
   32.1111   33.4347   62.8987 H   0  0  0  0  0  0  0  0  0  0  0  0
   32.2785   35.1753   62.5670 H   0  0  0  0  0  0  0  0  0  0  0  0
   32.6366   32.3294   56.5279 H   0  0  0  0  0  0  0  0  0  0  0  0
   33.8442   38.1034   53.4864 H   0  0  0  0  0  0  0  0  0  0  0  0
   35.4986   37.7853   54.0608 H   0  0  0  0  0  0  0  0  0  0  0  0
   34.8944   36.9762   52.5950 H   0  0  0  0  0  0  0  0  0  0  0  0
   34.2136   38.6170   55.4655 H   0  0  0  0  0  0  0  0  0  0  0  0
   32.0783   39.4363   59.3075 H   0  0  0  0  0  0  0  0  0  0  0  0
   33.7325   39.1178   59.8826 H   0  0  0  0  0  0  0  0  0  0  0  0
   33.2561   40.7668   59.4111 H   0  0  0  0  0  0  0  0  0  0  0  0
   32.6659   37.4404   59.2708 H   0  0  0  0  0  0  0  0  0  0  0  0
  1  2  1  0  0  0  0
  1 20  1  0  0  0  0
  1 21  1  0  0  0  0
  1 22  1  0  0  0  0
  2  3  1  0  0  0  0
  2 23  1  0  0  0  0
  2 24  1  0  0  0  0
  3  4  1  0  0  0  0
  3  6  1  0  0  0  0
  4  5  1  0  0  0  0
  4 25  1  0  0  0  0
  4 26  1  0  0  0  0
  5 27  1  0  0  0  0
  5 28  1  0  0  0  0
  5 29  1  0  0  0  0
  6 19  2  0  0  0  0
  6  7  1  0  0  0  0
  7  8  2  0  0  0  0
  8  9  1  0  0  0  0
  8 30  1  0  0  0  0
  9 10  2  0  0  0  0
 10 19  1  0  0  0  0
 10 11  1  0  0  0  0
 11 12  1  0  0  0  0
 11 14  2  0  0  0  0
 12 13  1  0  0  0  0
 13 31  1  0  0  0  0
 13 32  1  0  0  0  0
 13 33  1  0  0  0  0
 14 15  1  0  0  0  0
 14 34  1  0  0  0  0
 15 16  1  0  0  0  0
 15 18  2  0  0  0  0
 16 17  1  0  0  0  0
 17 35  1  0  0  0  0
 17 36  1  0  0  0  0
 17 37  1  0  0  0  0
 18 19  1  0  0  0  0
 18 38  1  0  0  0  0
M  END
$$$$
