ZINC000000047645      none
 OpenBabel11202420153D

 34 35  0  0  0  0  0  0  0  0999 V2000
   30.6703   35.8331   70.0589 C   0  0  0  0  0  0  0  0  0  0  0  0
   31.7263   36.6702   69.5830 O   0  0  0  0  0  0  0  0  0  0  0  0
   32.0536   36.5635   68.2675 C   0  0  0  0  0  0  0  0  0  0  0  0
   33.0693   37.3473   67.7401 C   0  0  0  0  0  0  0  0  0  0  0  0
   33.4023   37.2395   66.4043 C   0  0  0  0  0  0  0  0  0  0  0  0
   32.7201   36.3462   65.5890 C   0  0  0  0  0  0  0  0  0  0  0  0
   33.0570   36.2366   64.2338 N   0  0  0  0  0  0  0  0  0  0  0  0
   32.4419   37.0149   63.3215 C   0  0  0  0  0  0  0  0  0  0  0  0
   31.2488   38.1374   63.8190 S   0  0  0  0  0  0  0  0  0  0  0  0
   32.7659   36.9094   62.0175 N   0  0  0  0  0  0  0  0  0  0  0  0
   32.1507   37.6876   61.1051 C   0  0  0  0  0  0  0  0  0  0  0  0
   31.3037   38.4845   61.4583 O   0  0  0  0  0  0  0  0  0  0  0  0
   32.5059   37.5722   59.6762 C   0  0  0  0  0  0  0  0  0  0  0  0
   33.0118   38.6768   58.9875 C   0  0  0  0  0  0  0  0  0  0  0  0
   33.3415   38.5620   57.6535 C   0  0  0  0  0  0  0  0  0  0  0  0
   33.1729   37.3556   56.9961 C   0  0  0  0  0  0  0  0  0  0  0  0
   32.6731   36.2569   57.6707 C   0  0  0  0  0  0  0  0  0  0  0  0
   32.3380   36.3570   59.0071 C   0  0  0  0  0  0  0  0  0  0  0  0
   31.7101   34.9770   59.8528 Cl  0  0  0  0  0  0  0  0  0  0  0  0
   31.7001   35.5657   66.1165 C   0  0  0  0  0  0  0  0  0  0  0  0
   31.3714   35.6711   67.4536 C   0  0  0  0  0  0  0  0  0  0  0  0
   30.9394   34.7877   69.9079 H   0  0  0  0  0  0  0  0  0  0  0  0
   30.5112   36.0175   71.1212 H   0  0  0  0  0  0  0  0  0  0  0  0
   29.7551   36.0555   69.5103 H   0  0  0  0  0  0  0  0  0  0  0  0
   33.5994   38.0426   68.3743 H   0  0  0  0  0  0  0  0  0  0  0  0
   34.1927   37.8502   65.9937 H   0  0  0  0  0  0  0  0  0  0  0  0
   33.7330   35.6005   63.9520 H   0  0  0  0  0  0  0  0  0  0  0  0
   33.4419   36.2735   61.7356 H   0  0  0  0  0  0  0  0  0  0  0  0
   33.1441   39.6190   59.4984 H   0  0  0  0  0  0  0  0  0  0  0  0
   33.7327   39.4158   57.1202 H   0  0  0  0  0  0  0  0  0  0  0  0
   33.4333   37.2719   55.9513 H   0  0  0  0  0  0  0  0  0  0  0  0
   32.5403   35.3198   57.1505 H   0  0  0  0  0  0  0  0  0  0  0  0
   31.1663   34.8736   65.4821 H   0  0  0  0  0  0  0  0  0  0  0  0
   30.5805   35.0613   67.8649 H   0  0  0  0  0  0  0  0  0  0  0  0
  1  2  1  0  0  0  0
  1 22  1  0  0  0  0
  1 23  1  0  0  0  0
  1 24  1  0  0  0  0
  2  3  1  0  0  0  0
  3 21  2  0  0  0  0
  3  4  1  0  0  0  0
  4  5  2  0  0  0  0
  4 25  1  0  0  0  0
  5  6  1  0  0  0  0
  5 26  1  0  0  0  0
  6  7  1  0  0  0  0
  6 20  2  0  0  0  0
  7  8  1  0  0  0  0
  7 27  1  0  0  0  0
  8  9  2  0  0  0  0
  8 10  1  0  0  0  0
 10 11  1  0  0  0  0
 10 28  1  0  0  0  0
 11 12  2  0  0  0  0
 11 13  1  0  0  0  0
 13 18  2  0  0  0  0
 13 14  1  0  0  0  0
 14 15  2  0  0  0  0
 14 29  1  0  0  0  0
 15 16  1  0  0  0  0
 15 30  1  0  0  0  0
 16 17  2  0  0  0  0
 16 31  1  0  0  0  0
 17 18  1  0  0  0  0
 17 32  1  0  0  0  0
 18 19  1  0  0  0  0
 20 21  1  0  0  0  0
 20 33  1  0  0  0  0
 21 34  1  0  0  0  0
M  END
$$$$
