ZINC000000049277      none
 OpenBabel11202420153D

 37 38  0  0  0  0  0  0  0  0999 V2000
   31.3659   33.3722   62.2966 C   0  0  0  0  0  0  0  0  0  0  0  0
   32.2340   33.2070   61.0477 C   0  0  0  0  0  0  0  0  0  0  0  0
   31.4887   33.6005   59.8939 O   0  0  0  0  0  0  0  0  0  0  0  0
   31.9904   34.6262   59.1549 C   0  0  0  0  0  0  0  0  0  0  0  0
   32.3167   34.4261   57.8276 C   0  0  0  0  0  0  0  0  0  0  0  0
   32.8268   35.4841   57.0696 C   0  0  0  0  0  0  0  0  0  0  0  0
   33.1708   35.2780   55.6510 C   0  0  0  0  0  0  0  0  0  0  0  0
   32.3900   36.1998   54.4381 S   0  0  0  0  0  0  0  0  0  0  0  0
   34.1002   34.3637   55.3091 N   0  0  0  0  0  0  0  0  0  0  0  0
   34.7835   33.5693   56.3391 C   0  0  0  0  0  0  0  0  0  0  0  0
   34.6298   32.0811   55.9900 C   0  0  0  0  0  0  0  0  0  0  0  0
   35.1428   31.8408   54.5683 C   0  0  0  0  0  0  0  0  0  0  0  0
   34.3079   32.6562   53.5782 C   0  0  0  0  0  0  0  0  0  0  0  0
   34.4538   34.1469   53.8995 C   0  0  0  0  0  0  0  0  0  0  0  0
   33.0093   36.7377   57.6597 C   0  0  0  0  0  0  0  0  0  0  0  0
   32.6867   36.9285   58.9857 C   0  0  0  0  0  0  0  0  0  0  0  0
   32.1805   35.8777   59.7385 C   0  0  0  0  0  0  0  0  0  0  0  0
   31.8644   36.0710   61.0452 O   0  0  0  0  0  0  0  0  0  0  0  0
   30.4777   32.7466   62.2070 H   0  0  0  0  0  0  0  0  0  0  0  0
   31.9344   33.0719   63.1767 H   0  0  0  0  0  0  0  0  0  0  0  0
   31.0668   34.4156   62.3958 H   0  0  0  0  0  0  0  0  0  0  0  0
   32.5332   32.1634   60.9486 H   0  0  0  0  0  0  0  0  0  0  0  0
   33.1223   33.8325   61.1374 H   0  0  0  0  0  0  0  0  0  0  0  0
   32.1737   33.4559   57.3753 H   0  0  0  0  0  0  0  0  0  0  0  0
   35.8403   33.8344   56.3637 H   0  0  0  0  0  0  0  0  0  0  0  0
   34.3323   33.7664   57.3116 H   0  0  0  0  0  0  0  0  0  0  0  0
   33.5790   31.7974   56.0504 H   0  0  0  0  0  0  0  0  0  0  0  0
   35.2097   31.4822   56.6921 H   0  0  0  0  0  0  0  0  0  0  0  0
   35.0602   30.7813   54.3268 H   0  0  0  0  0  0  0  0  0  0  0  0
   36.1866   32.1480   54.5022 H   0  0  0  0  0  0  0  0  0  0  0  0
   33.2603   32.3670   53.6613 H   0  0  0  0  0  0  0  0  0  0  0  0
   34.6587   32.4665   52.5638 H   0  0  0  0  0  0  0  0  0  0  0  0
   33.7853   34.7253   53.2619 H   0  0  0  0  0  0  0  0  0  0  0  0
   35.4845   34.4581   53.7294 H   0  0  0  0  0  0  0  0  0  0  0  0
   33.4036   37.5568   57.0765 H   0  0  0  0  0  0  0  0  0  0  0  0
   32.8282   37.8979   59.4405 H   0  0  0  0  0  0  0  0  0  0  0  0
   32.0302   36.9698   61.3612 H   0  0  0  0  0  0  0  0  0  0  0  0
  1  2  1  0  0  0  0
  1 19  1  0  0  0  0
  1 20  1  0  0  0  0
  1 21  1  0  0  0  0
  2  3  1  0  0  0  0
  2 22  1  0  0  0  0
  2 23  1  0  0  0  0
  3  4  1  0  0  0  0
  4 17  2  0  0  0  0
  4  5  1  0  0  0  0
  5  6  2  0  0  0  0
  5 24  1  0  0  0  0
  6  7  1  0  0  0  0
  6 15  1  0  0  0  0
  7  8  2  0  0  0  0
  7  9  1  0  0  0  0
  9 14  1  0  0  0  0
  9 10  1  0  0  0  0
 10 11  1  0  0  0  0
 10 25  1  0  0  0  0
 10 26  1  0  0  0  0
 11 12  1  0  0  0  0
 11 27  1  0  0  0  0
 11 28  1  0  0  0  0
 12 13  1  0  0  0  0
 12 29  1  0  0  0  0
 12 30  1  0  0  0  0
 13 14  1  0  0  0  0
 13 31  1  0  0  0  0
 13 32  1  0  0  0  0
 14 33  1  0  0  0  0
 14 34  1  0  0  0  0
 15 16  2  0  0  0  0
 15 35  1  0  0  0  0
 16 17  1  0  0  0  0
 16 36  1  0  0  0  0
 17 18  1  0  0  0  0
 18 37  1  0  0  0  0
M  END
$$$$
