ZINC000000030540      none
 OpenBabel11202420163D

 33 33  0  0  0  0  0  0  0  0999 V2000
   30.2812   38.7141   64.1690 C   0  0  0  0  0  0  0  0  0  0  0  0
   30.3305   38.5567   62.8695 C   0  0  0  0  0  0  0  0  0  0  0  0
   29.7143   37.3368   62.2345 C   0  0  0  0  0  0  0  0  0  0  0  0
   30.7467   36.5861   61.5155 N   0  0  0  0  0  0  0  0  0  0  0  0
   31.5068   35.5411   62.2057 C   0  0  0  0  0  0  0  0  0  0  0  0
   32.7378   36.1451   62.8308 C   0  0  0  0  0  0  0  0  0  0  0  0
   32.9161   36.0748   64.1268 C   0  0  0  0  0  0  0  0  0  0  0  0
   30.9971   36.8569   60.2192 C   0  0  0  0  0  0  0  0  0  0  0  0
   30.3678   37.7219   59.6479 O   0  0  0  0  0  0  0  0  0  0  0  0
   32.0635   36.0889   59.4814 C   0  0  0  0  0  0  0  0  0  0  0  0
   32.6629   36.9640   58.4110 C   0  0  0  0  0  0  0  0  0  0  0  0
   33.1649   36.3959   57.2549 C   0  0  0  0  0  0  0  0  0  0  0  0
   33.7097   37.1985   56.2703 C   0  0  0  0  0  0  0  0  0  0  0  0
   33.7629   38.5697   56.4470 C   0  0  0  0  0  0  0  0  0  0  0  0
   34.4540   39.5778   55.2140 Cl  0  0  0  0  0  0  0  0  0  0  0  0
   33.2655   39.1371   57.6066 C   0  0  0  0  0  0  0  0  0  0  0  0
   32.7158   38.3341   58.5879 C   0  0  0  0  0  0  0  0  0  0  0  0
   29.7991   37.9699   64.7853 H   0  0  0  0  0  0  0  0  0  0  0  0
   30.7229   39.5883   64.6241 H   0  0  0  0  0  0  0  0  0  0  0  0
   30.8127   39.3010   62.2532 H   0  0  0  0  0  0  0  0  0  0  0  0
   28.9362   37.6446   61.5359 H   0  0  0  0  0  0  0  0  0  0  0  0
   29.2785   36.7051   63.0086 H   0  0  0  0  0  0  0  0  0  0  0  0
   30.8868   35.0939   62.9828 H   0  0  0  0  0  0  0  0  0  0  0  0
   31.8019   34.7737   61.4900 H   0  0  0  0  0  0  0  0  0  0  0  0
   33.4731   36.6360   62.2105 H   0  0  0  0  0  0  0  0  0  0  0  0
   32.1809   35.5838   64.7471 H   0  0  0  0  0  0  0  0  0  0  0  0
   33.7983   36.5076   64.5747 H   0  0  0  0  0  0  0  0  0  0  0  0
   32.8423   35.7853   60.1809 H   0  0  0  0  0  0  0  0  0  0  0  0
   31.6221   35.2041   59.0226 H   0  0  0  0  0  0  0  0  0  0  0  0
   33.1273   35.3252   57.1192 H   0  0  0  0  0  0  0  0  0  0  0  0
   34.0978   36.7550   55.3654 H   0  0  0  0  0  0  0  0  0  0  0  0
   33.3071   40.2074   57.7451 H   0  0  0  0  0  0  0  0  0  0  0  0
   32.3278   38.7769   59.4933 H   0  0  0  0  0  0  0  0  0  0  0  0
  1  2  2  0  0  0  0
  1 18  1  0  0  0  0
  1 19  1  0  0  0  0
  2  3  1  0  0  0  0
  2 20  1  0  0  0  0
  3  4  1  0  0  0  0
  3 21  1  0  0  0  0
  3 22  1  0  0  0  0
  4  5  1  0  0  0  0
  4  8  1  0  0  0  0
  5  6  1  0  0  0  0
  5 23  1  0  0  0  0
  5 24  1  0  0  0  0
  6  7  2  0  0  0  0
  6 25  1  0  0  0  0
  7 26  1  0  0  0  0
  7 27  1  0  0  0  0
  8  9  2  0  0  0  0
  8 10  1  0  0  0  0
 10 11  1  0  0  0  0
 10 28  1  0  0  0  0
 10 29  1  0  0  0  0
 11 17  2  0  0  0  0
 11 12  1  0  0  0  0
 12 13  2  0  0  0  0
 12 30  1  0  0  0  0
 13 14  1  0  0  0  0
 13 31  1  0  0  0  0
 14 15  1  0  0  0  0
 14 16  2  0  0  0  0
 16 17  1  0  0  0  0
 16 32  1  0  0  0  0
 17 33  1  0  0  0  0
M  END
$$$$
