ZINC000000049831      none
 OpenBabel11202420153D

 36 38  0  0  0  0  0  0  0  0999 V2000
   33.2274   34.4789   55.7135 C   0  0  0  0  0  0  0  0  0  0  0  0
   33.0903   35.6510   56.6507 C   0  0  0  0  0  0  0  0  0  0  0  0
   32.6612   35.4509   57.9316 C   0  0  0  0  0  0  0  0  0  0  0  0
   32.5341   36.5498   58.8061 C   0  0  0  0  0  0  0  0  0  0  0  0
   32.0904   36.3556   60.1348 C   0  0  0  0  0  0  0  0  0  0  0  0
   30.7972   35.7904   60.5314 C   0  0  0  0  0  0  0  0  0  0  0  0
   30.7735   35.7797   61.8877 C   0  0  0  0  0  0  0  0  0  0  0  0
   32.0566   36.3402   62.3363 C   0  0  0  0  0  0  0  0  0  0  0  0
   32.4533   36.5133   63.6631 C   0  0  0  0  0  0  0  0  0  0  0  0
   31.6450   36.1597   64.6454 N   0  0  0  0  0  0  0  0  0  0  0  0
   32.0116   36.3197   65.8718 N   0  0  0  0  0  0  0  0  0  0  0  0
   31.6409   35.5626   66.9581 C   0  0  0  0  0  0  0  0  0  0  0  0
   32.2434   36.0658   67.9971 N   0  0  0  0  0  0  0  0  0  0  0  0
   32.9562   37.0773   67.6521 N   0  0  0  0  0  0  0  0  0  0  0  0
   32.8547   37.2849   66.3705 C   0  0  0  0  0  0  0  0  0  0  0  0
   32.7817   36.6638   61.2468 O   0  0  0  0  0  0  0  0  0  0  0  0
   32.8472   37.8448   58.3435 C   0  0  0  0  0  0  0  0  0  0  0  0
   32.7111   39.0305   59.2637 C   0  0  0  0  0  0  0  0  0  0  0  0
   33.2801   38.0191   57.0605 C   0  0  0  0  0  0  0  0  0  0  0  0
   33.6153   39.3760   56.5736 N   0  0  0  0  0  0  0  0  0  0  0  0
   33.4958   40.4123   57.3775 O   0  0  0  0  0  0  0  0  0  0  0  0
   34.0330   39.5472   55.3364 O   0  0  0  0  0  0  0  0  0  0  0  0
   33.4009   36.9295   56.2087 C   0  0  0  0  0  0  0  0  0  0  0  0
   32.2878   34.3266   55.1822 H   0  0  0  0  0  0  0  0  0  0  0  0
   34.0226   34.6790   54.9954 H   0  0  0  0  0  0  0  0  0  0  0  0
   33.4709   33.5832   56.2850 H   0  0  0  0  0  0  0  0  0  0  0  0
   32.4202   34.4552   58.2735 H   0  0  0  0  0  0  0  0  0  0  0  0
   30.0143   35.4480   59.8709 H   0  0  0  0  0  0  0  0  0  0  0  0
   29.9687   35.4277   62.5159 H   0  0  0  0  0  0  0  0  0  0  0  0
   33.4216   36.9364   63.8863 H   0  0  0  0  0  0  0  0  0  0  0  0
   30.9790   34.7093   66.9504 H   0  0  0  0  0  0  0  0  0  0  0  0
   33.3437   38.0646   65.8055 H   0  0  0  0  0  0  0  0  0  0  0  0
   33.6769   39.2499   59.7189 H   0  0  0  0  0  0  0  0  0  0  0  0
   32.3730   39.8959   58.6938 H   0  0  0  0  0  0  0  0  0  0  0  0
   31.9849   38.8032   60.0442 H   0  0  0  0  0  0  0  0  0  0  0  0
   33.7397   37.0778   55.1939 H   0  0  0  0  0  0  0  0  0  0  0  0
  1  2  1  0  0  0  0
  1 24  1  0  0  0  0
  1 25  1  0  0  0  0
  1 26  1  0  0  0  0
  2 23  2  0  0  0  0
  2  3  1  0  0  0  0
  3  4  2  0  0  0  0
  3 27  1  0  0  0  0
  4  5  1  0  0  0  0
  4 17  1  0  0  0  0
  5 16  1  0  0  0  0
  5  6  2  0  0  0  0
  6  7  1  0  0  0  0
  6 28  1  0  0  0  0
  7  8  2  0  0  0  0
  7 29  1  0  0  0  0
  8  9  1  0  0  0  0
  8 16  1  0  0  0  0
  9 10  2  0  0  0  0
  9 30  1  0  0  0  0
 10 11  1  0  0  0  0
 11 15  1  0  0  0  0
 11 12  1  0  0  0  0
 12 13  2  0  0  0  0
 12 31  1  0  0  0  0
 13 14  1  0  0  0  0
 14 15  2  0  0  0  0
 15 32  1  0  0  0  0
 17 18  1  0  0  0  0
 17 19  2  0  0  0  0
 18 33  1  0  0  0  0
 18 34  1  0  0  0  0
 18 35  1  0  0  0  0
 19 20  1  0  0  0  0
 19 23  1  0  0  0  0
 20 21  2  0  0  0  0
 20 22  2  0  0  0  0
 23 36  1  0  0  0  0
M  END
$$$$
