ZINC000000001579      none
 OpenBabel11202420153D

 26 26  0  0  0  0  0  0  0  0999 V2000
   33.1047   36.4480   53.6211 C   0  0  0  0  0  0  0  0  0  0  0  0
   32.6894   35.3175   54.5646 C   0  0  0  0  0  0  0  0  0  0  0  0
   32.7743   33.9801   53.8263 C   0  0  0  0  0  0  0  0  0  0  0  0
   33.5886   35.2936   55.7260 N   0  0  0  0  0  0  0  0  0  0  0  0
   33.2349   36.2466   56.6385 N   0  0  0  0  0  0  0  0  0  0  0  0
   32.8921   35.8861   57.8911 C   0  0  0  0  0  0  0  0  0  0  0  0
   32.8975   34.7132   58.2086 O   0  0  0  0  0  0  0  0  0  0  0  0
   32.5087   36.9198   58.8807 C   0  0  0  0  0  0  0  0  0  0  0  0
   32.9971   38.2261   58.7810 C   0  0  0  0  0  0  0  0  0  0  0  0
   32.6133   39.1585   59.7254 C   0  0  0  0  0  0  0  0  0  0  0  0
   31.7996   38.8301   60.7091 N   0  0  0  0  0  0  0  0  0  0  0  0
   31.3164   37.6107   60.8395 C   0  0  0  0  0  0  0  0  0  0  0  0
   31.6480   36.6161   59.9399 C   0  0  0  0  0  0  0  0  0  0  0  0
   32.4375   36.4658   52.7593 H   0  0  0  0  0  0  0  0  0  0  0  0
   33.0442   37.4008   54.1472 H   0  0  0  0  0  0  0  0  0  0  0  0
   34.1283   36.2831   53.2848 H   0  0  0  0  0  0  0  0  0  0  0  0
   31.6658   35.4824   54.9008 H   0  0  0  0  0  0  0  0  0  0  0  0
   32.4786   33.1746   54.4985 H   0  0  0  0  0  0  0  0  0  0  0  0
   32.1072   33.9977   52.9645 H   0  0  0  0  0  0  0  0  0  0  0  0
   33.7980   33.8151   53.4900 H   0  0  0  0  0  0  0  0  0  0  0  0
   34.5500   35.4049   55.4412 H   0  0  0  0  0  0  0  0  0  0  0  0
   33.2307   37.1830   56.3850 H   0  0  0  0  0  0  0  0  0  0  0  0
   33.6677   38.5010   57.9803 H   0  0  0  0  0  0  0  0  0  0  0  0
   32.9854   40.1700   59.6571 H   0  0  0  0  0  0  0  0  0  0  0  0
   30.6523   37.3861   61.6610 H   0  0  0  0  0  0  0  0  0  0  0  0
   31.2489   35.6191   60.0533 H   0  0  0  0  0  0  0  0  0  0  0  0
  1  2  1  0  0  0  0
  1 14  1  0  0  0  0
  1 15  1  0  0  0  0
  1 16  1  0  0  0  0
  2  3  1  0  0  0  0
  2  4  1  0  0  0  0
  2 17  1  0  0  0  0
  3 18  1  0  0  0  0
  3 19  1  0  0  0  0
  3 20  1  0  0  0  0
  4  5  1  0  0  0  0
  4 21  1  0  0  0  0
  5  6  1  0  0  0  0
  5 22  1  0  0  0  0
  6  7  2  0  0  0  0
  6  8  1  0  0  0  0
  8 13  2  0  0  0  0
  8  9  1  0  0  0  0
  9 10  2  0  0  0  0
  9 23  1  0  0  0  0
 10 11  1  0  0  0  0
 10 24  1  0  0  0  0
 11 12  2  0  0  0  0
 12 13  1  0  0  0  0
 12 25  1  0  0  0  0
 13 26  1  0  0  0  0
M  END
$$$$
