ZINC000000052495      none
 OpenBabel11202420153D

 42 45  0  0  0  0  0  0  0  0999 V2000
   29.9148   37.8195   64.6047 C   0  0  0  0  0  0  0  0  0  0  0  0
   30.1699   37.3225   63.1804 C   0  0  0  0  0  0  0  0  0  0  0  0
   31.4012   36.4123   63.1688 C   0  0  0  0  0  0  0  0  0  0  0  0
   31.6873   35.9674   61.7328 C   0  0  0  0  0  0  0  0  0  0  0  0
   31.9209   37.1476   60.8908 N   0  0  0  0  0  0  0  0  0  0  0  0
   32.3096   36.7786   59.6191 C   0  0  0  0  0  0  0  0  0  0  0  0
   32.5691   37.7105   58.7050 N   0  0  0  0  0  0  0  0  0  0  0  0
   32.9413   37.3575   57.4856 C   0  0  0  0  0  0  0  0  0  0  0  0
   33.2793   38.5761   56.2964 Cl  0  0  0  0  0  0  0  0  0  0  0  0
   33.0616   36.0777   57.1720 N   0  0  0  0  0  0  0  0  0  0  0  0
   32.7987   35.1411   58.0802 C   0  0  0  0  0  0  0  0  0  0  0  0
   32.9200   33.8055   57.7507 N   0  0  0  0  0  0  0  0  0  0  0  0
   33.3199   33.4360   56.4603 C   0  0  0  0  0  0  0  0  0  0  0  0
   32.5606   33.8178   55.3623 C   0  0  0  0  0  0  0  0  0  0  0  0
   32.9566   33.4582   54.0881 C   0  0  0  0  0  0  0  0  0  0  0  0
   34.1069   32.7083   53.9032 C   0  0  0  0  0  0  0  0  0  0  0  0
   34.8706   32.3241   55.0027 C   0  0  0  0  0  0  0  0  0  0  0  0
   34.4755   32.6887   56.2790 C   0  0  0  0  0  0  0  0  0  0  0  0
   35.9436   31.6061   54.5592 O   0  0  0  0  0  0  0  0  0  0  0  0
   35.6109   31.2065   53.2166 C   0  0  0  0  0  0  0  0  0  0  0  0
   34.7022   32.2303   52.7703 O   0  0  0  0  0  0  0  0  0  0  0  0
   32.4247   35.4926   59.3060 N   0  0  0  0  0  0  0  0  0  0  0  0
   30.7352   38.0129   60.8485 C   0  0  0  0  0  0  0  0  0  0  0  0
   30.4206   38.5187   62.2581 C   0  0  0  0  0  0  0  0  0  0  0  0
   30.7823   38.3784   64.9554 H   0  0  0  0  0  0  0  0  0  0  0  0
   29.0381   38.4673   64.6119 H   0  0  0  0  0  0  0  0  0  0  0  0
   29.7419   36.9669   65.2616 H   0  0  0  0  0  0  0  0  0  0  0  0
   29.3020   36.7656   62.8269 H   0  0  0  0  0  0  0  0  0  0  0  0
   31.2123   35.5370   63.7903 H   0  0  0  0  0  0  0  0  0  0  0  0
   32.2607   36.9570   63.5592 H   0  0  0  0  0  0  0  0  0  0  0  0
   30.8331   35.4103   61.3483 H   0  0  0  0  0  0  0  0  0  0  0  0
   32.5719   35.3307   61.7194 H   0  0  0  0  0  0  0  0  0  0  0  0
   32.7283   33.1232   58.4130 H   0  0  0  0  0  0  0  0  0  0  0  0
   31.6616   34.3993   55.5038 H   0  0  0  0  0  0  0  0  0  0  0  0
   32.3672   33.7604   53.2350 H   0  0  0  0  0  0  0  0  0  0  0  0
   35.0660   32.3912   57.1329 H   0  0  0  0  0  0  0  0  0  0  0  0
   35.1206   30.2330   53.2171 H   0  0  0  0  0  0  0  0  0  0  0  0
   36.5031   31.1868   52.5906 H   0  0  0  0  0  0  0  0  0  0  0  0
   30.9283   38.8618   60.1925 H   0  0  0  0  0  0  0  0  0  0  0  0
   29.8855   37.4460   60.4680 H   0  0  0  0  0  0  0  0  0  0  0  0
   29.5313   39.1483   62.2288 H   0  0  0  0  0  0  0  0  0  0  0  0
   31.2646   39.0973   62.6339 H   0  0  0  0  0  0  0  0  0  0  0  0
  1  2  1  0  0  0  0
  1 25  1  0  0  0  0
  1 26  1  0  0  0  0
  1 27  1  0  0  0  0
  2 24  1  0  0  0  0
  2  3  1  0  0  0  0
  2 28  1  0  0  0  0
  3  4  1  0  0  0  0
  3 29  1  0  0  0  0
  3 30  1  0  0  0  0
  4  5  1  0  0  0  0
  4 31  1  0  0  0  0
  4 32  1  0  0  0  0
  5  6  1  0  0  0  0
  5 23  1  0  0  0  0
  6 22  2  0  0  0  0
  6  7  1  0  0  0  0
  7  8  2  0  0  0  0
  8  9  1  0  0  0  0
  8 10  1  0  0  0  0
 10 11  2  0  0  0  0
 11 12  1  0  0  0  0
 11 22  1  0  0  0  0
 12 13  1  0  0  0  0
 12 33  1  0  0  0  0
 13 18  2  0  0  0  0
 13 14  1  0  0  0  0
 14 15  2  0  0  0  0
 14 34  1  0  0  0  0
 15 16  1  0  0  0  0
 15 35  1  0  0  0  0
 16 21  1  0  0  0  0
 16 17  2  0  0  0  0
 17 18  1  0  0  0  0
 17 19  1  0  0  0  0
 18 36  1  0  0  0  0
 19 20  1  0  0  0  0
 20 21  1  0  0  0  0
 20 37  1  0  0  0  0
 20 38  1  0  0  0  0
 23 24  1  0  0  0  0
 23 39  1  0  0  0  0
 23 40  1  0  0  0  0
 24 41  1  0  0  0  0
 24 42  1  0  0  0  0
M  END
$$$$
