ZINC000000006302      none
 OpenBabel11202420153D

 29 30  0  0  0  0  0  0  0  0999 V2000
   29.9538   37.1027   61.7909 C   0  0  0  0  0  0  0  0  0  0  0  0
   31.4800   36.9970   61.8157 C   0  0  0  0  0  0  0  0  0  0  0  0
   32.0141   37.3295   60.4927 N   0  0  0  0  0  0  0  0  0  0  0  0
   32.3505   38.5086   60.1008 N   0  0  0  0  0  0  0  0  0  0  0  0
   32.7844   38.4398   58.8881 N   0  0  0  0  0  0  0  0  0  0  0  0
   32.7035   37.1552   58.5088 C   0  0  0  0  0  0  0  0  0  0  0  0
   33.0869   36.5960   57.1943 C   0  0  0  0  0  0  0  0  0  0  0  0
   33.5643   37.4122   56.2816 C   0  0  0  0  0  0  0  0  0  0  0  0
   33.9814   36.9465   54.9145 C   0  0  0  0  0  0  0  0  0  0  0  0
   34.1548   35.4256   54.9179 C   0  0  0  0  0  0  0  0  0  0  0  0
   32.9611   34.8201   55.5309 N   0  0  0  0  0  0  0  0  0  0  0  0
   32.9264   33.3704   55.2955 C   0  0  0  0  0  0  0  0  0  0  0  0
   32.9182   35.1213   56.9671 C   0  0  0  0  0  0  0  0  0  0  0  0
   32.2203   36.4874   59.5393 N   0  0  0  0  0  0  0  0  0  0  0  0
   29.5535   36.4081   61.0524 H   0  0  0  0  0  0  0  0  0  0  0  0
   29.5564   36.8552   62.7753 H   0  0  0  0  0  0  0  0  0  0  0  0
   29.6642   38.1200   61.5274 H   0  0  0  0  0  0  0  0  0  0  0  0
   31.7694   35.9797   62.0793 H   0  0  0  0  0  0  0  0  0  0  0  0
   31.8803   37.6915   62.5542 H   0  0  0  0  0  0  0  0  0  0  0  0
   33.6605   38.4603   56.5235 H   0  0  0  0  0  0  0  0  0  0  0  0
   33.2168   37.2227   54.1884 H   0  0  0  0  0  0  0  0  0  0  0  0
   34.9256   37.4186   54.6431 H   0  0  0  0  0  0  0  0  0  0  0  0
   34.2626   35.0671   53.8943 H   0  0  0  0  0  0  0  0  0  0  0  0
   35.0408   35.1594   55.4944 H   0  0  0  0  0  0  0  0  0  0  0  0
   33.8138   32.9104   55.7301 H   0  0  0  0  0  0  0  0  0  0  0  0
   32.0345   32.9484   55.7587 H   0  0  0  0  0  0  0  0  0  0  0  0
   32.9049   33.1769   54.2231 H   0  0  0  0  0  0  0  0  0  0  0  0
   33.7207   34.5841   57.4727 H   0  0  0  0  0  0  0  0  0  0  0  0
   31.9595   34.8005   57.3748 H   0  0  0  0  0  0  0  0  0  0  0  0
  1  2  1  0  0  0  0
  1 15  1  0  0  0  0
  1 16  1  0  0  0  0
  1 17  1  0  0  0  0
  2  3  1  0  0  0  0
  2 18  1  0  0  0  0
  2 19  1  0  0  0  0
  3 14  1  0  0  0  0
  3  4  1  0  0  0  0
  4  5  2  0  0  0  0
  5  6  1  0  0  0  0
  6  7  1  0  0  0  0
  6 14  2  0  0  0  0
  7 13  1  0  0  0  0
  7  8  2  0  0  0  0
  8  9  1  0  0  0  0
  8 20  1  0  0  0  0
  9 10  1  0  0  0  0
  9 21  1  0  0  0  0
  9 22  1  0  0  0  0
 10 11  1  0  0  0  0
 10 23  1  0  0  0  0
 10 24  1  0  0  0  0
 11 12  1  0  0  0  0
 11 13  1  0  0  0  0
 12 25  1  0  0  0  0
 12 26  1  0  0  0  0
 12 27  1  0  0  0  0
 13 28  1  0  0  0  0
 13 29  1  0  0  0  0
M  END
$$$$
