ZINC000000034727      none
 OpenBabel11202420153D

 34 35  0  0  0  0  0  0  0  0999 V2000
   31.8425   34.1310   59.6871 C   0  0  0  0  0  0  0  0  0  0  0  0
   31.8743   35.4171   60.3091 O   0  0  0  0  0  0  0  0  0  0  0  0
   32.2813   36.4639   59.5424 C   0  0  0  0  0  0  0  0  0  0  0  0
   32.6349   36.2571   58.2238 C   0  0  0  0  0  0  0  0  0  0  0  0
   33.0588   37.3364   57.4392 C   0  0  0  0  0  0  0  0  0  0  0  0
   33.4418   37.1224   56.0372 C   0  0  0  0  0  0  0  0  0  0  0  0
   33.3910   36.0095   55.5577 O   0  0  0  0  0  0  0  0  0  0  0  0
   33.1164   38.6201   57.9946 C   0  0  0  0  0  0  0  0  0  0  0  0
   32.7564   38.8180   59.3089 C   0  0  0  0  0  0  0  0  0  0  0  0
   32.3359   37.7467   60.0865 C   0  0  0  0  0  0  0  0  0  0  0  0
   31.9822   37.9483   61.3821 O   0  0  0  0  0  0  0  0  0  0  0  0
   31.0529   37.1210   61.8982 C   0  0  0  0  0  0  0  0  0  0  0  0
   29.9451   37.0669   61.4020 O   0  0  0  0  0  0  0  0  0  0  0  0
   31.3517   36.3536   62.9650 N   0  0  0  0  0  0  0  0  0  0  0  0
   32.6882   36.3976   63.5793 C   0  0  0  0  0  0  0  0  0  0  0  0
   32.5135   36.6032   65.0925 C   0  0  0  0  0  0  0  0  0  0  0  0
   31.6146   35.6139   65.5995 O   0  0  0  0  0  0  0  0  0  0  0  0
   30.2938   35.6907   65.0578 C   0  0  0  0  0  0  0  0  0  0  0  0
   30.3531   35.4425   63.5463 C   0  0  0  0  0  0  0  0  0  0  0  0
   32.8427   33.8696   59.3418 H   0  0  0  0  0  0  0  0  0  0  0  0
   31.5008   33.3875   60.4072 H   0  0  0  0  0  0  0  0  0  0  0  0
   31.1595   34.1550   58.8379 H   0  0  0  0  0  0  0  0  0  0  0  0
   32.5888   35.2648   57.8000 H   0  0  0  0  0  0  0  0  0  0  0  0
   33.7686   37.9561   55.4334 H   0  0  0  0  0  0  0  0  0  0  0  0
   33.4432   39.4550   57.3926 H   0  0  0  0  0  0  0  0  0  0  0  0
   32.8015   39.8088   59.7363 H   0  0  0  0  0  0  0  0  0  0  0  0
   33.2096   35.4590   63.3913 H   0  0  0  0  0  0  0  0  0  0  0  0
   33.2585   37.2256   63.1585 H   0  0  0  0  0  0  0  0  0  0  0  0
   32.1070   37.5963   65.2830 H   0  0  0  0  0  0  0  0  0  0  0  0
   33.4800   36.5046   65.5867 H   0  0  0  0  0  0  0  0  0  0  0  0
   29.8792   36.6807   65.2482 H   0  0  0  0  0  0  0  0  0  0  0  0
   29.6628   34.9354   65.5264 H   0  0  0  0  0  0  0  0  0  0  0  0
   29.3764   35.6377   63.1036 H   0  0  0  0  0  0  0  0  0  0  0  0
   30.6434   34.4094   63.3550 H   0  0  0  0  0  0  0  0  0  0  0  0
  1  2  1  0  0  0  0
  1 20  1  0  0  0  0
  1 21  1  0  0  0  0
  1 22  1  0  0  0  0
  2  3  1  0  0  0  0
  3 10  2  0  0  0  0
  3  4  1  0  0  0  0
  4  5  2  0  0  0  0
  4 23  1  0  0  0  0
  5  6  1  0  0  0  0
  5  8  1  0  0  0  0
  6  7  2  0  0  0  0
  6 24  1  0  0  0  0
  8  9  2  0  0  0  0
  8 25  1  0  0  0  0
  9 10  1  0  0  0  0
  9 26  1  0  0  0  0
 10 11  1  0  0  0  0
 11 12  1  0  0  0  0
 12 13  2  0  0  0  0
 12 14  1  0  0  0  0
 14 19  1  0  0  0  0
 14 15  1  0  0  0  0
 15 16  1  0  0  0  0
 15 27  1  0  0  0  0
 15 28  1  0  0  0  0
 16 17  1  0  0  0  0
 16 29  1  0  0  0  0
 16 30  1  0  0  0  0
 17 18  1  0  0  0  0
 18 19  1  0  0  0  0
 18 31  1  0  0  0  0
 18 32  1  0  0  0  0
 19 33  1  0  0  0  0
 19 34  1  0  0  0  0
M  END
$$$$
