ZINC000000053821      none
 OpenBabel11202420153D

 37 39  0  0  0  0  0  0  0  0999 V2000
   31.8317   33.4156   56.9159 C   0  0  0  0  0  0  0  0  0  0  0  0
   32.3197   34.1202   58.1554 C   0  0  0  0  0  0  0  0  0  0  0  0
   32.5092   33.4905   59.1775 O   0  0  0  0  0  0  0  0  0  0  0  0
   32.5615   35.5052   58.1278 C   0  0  0  0  0  0  0  0  0  0  0  0
   32.9497   36.2114   57.0416 O   0  0  0  0  0  0  0  0  0  0  0  0
   33.0973   37.5176   57.3390 C   0  0  0  0  0  0  0  0  0  0  0  0
   33.4716   38.6229   56.5821 C   0  0  0  0  0  0  0  0  0  0  0  0
   33.5362   39.8677   57.1696 C   0  0  0  0  0  0  0  0  0  0  0  0
   33.2320   40.0344   58.5136 C   0  0  0  0  0  0  0  0  0  0  0  0
   32.8622   38.9627   59.2768 C   0  0  0  0  0  0  0  0  0  0  0  0
   32.7905   37.6935   58.6999 C   0  0  0  0  0  0  0  0  0  0  0  0
   32.4341   36.3633   59.2066 C   0  0  0  0  0  0  0  0  0  0  0  0
   32.0521   36.0341   60.4972 N   0  0  0  0  0  0  0  0  0  0  0  0
   30.8448   35.4789   60.7216 C   0  0  0  0  0  0  0  0  0  0  0  0
   30.0909   35.2668   59.7920 O   0  0  0  0  0  0  0  0  0  0  0  0
   30.4372   35.1277   62.0982 C   0  0  0  0  0  0  0  0  0  0  0  0
   29.7641   36.0602   62.8896 C   0  0  0  0  0  0  0  0  0  0  0  0
   29.3820   35.7241   64.1717 C   0  0  0  0  0  0  0  0  0  0  0  0
   29.6744   34.4690   64.6776 C   0  0  0  0  0  0  0  0  0  0  0  0
   29.2595   34.1121   66.0817 C   0  0  0  0  0  0  0  0  0  0  0  0
   28.6011   35.2000   66.6650 F   0  0  0  0  0  0  0  0  0  0  0  0
   28.3985   33.0099   66.0469 F   0  0  0  0  0  0  0  0  0  0  0  0
   30.3937   33.7942   66.8365 F   0  0  0  0  0  0  0  0  0  0  0  0
   30.3460   33.5429   63.9006 C   0  0  0  0  0  0  0  0  0  0  0  0
   30.7289   33.8640   62.6148 C   0  0  0  0  0  0  0  0  0  0  0  0
   31.7069   32.3536   57.1270 H   0  0  0  0  0  0  0  0  0  0  0  0
   30.8757   33.8400   56.6094 H   0  0  0  0  0  0  0  0  0  0  0  0
   32.5597   33.5437   56.1147 H   0  0  0  0  0  0  0  0  0  0  0  0
   33.7109   38.5057   55.5355 H   0  0  0  0  0  0  0  0  0  0  0  0
   33.8270   40.7231   56.5779 H   0  0  0  0  0  0  0  0  0  0  0  0
   33.2875   41.0168   58.9587 H   0  0  0  0  0  0  0  0  0  0  0  0
   32.6261   39.0972   60.3220 H   0  0  0  0  0  0  0  0  0  0  0  0
   32.6536   36.2033   61.2392 H   0  0  0  0  0  0  0  0  0  0  0  0
   29.5391   37.0409   62.4974 H   0  0  0  0  0  0  0  0  0  0  0  0
   28.8576   36.4431   64.7837 H   0  0  0  0  0  0  0  0  0  0  0  0
   30.5712   32.5658   64.3018 H   0  0  0  0  0  0  0  0  0  0  0  0
   31.2526   33.1393   62.0092 H   0  0  0  0  0  0  0  0  0  0  0  0
  1  2  1  0  0  0  0
  1 26  1  0  0  0  0
  1 27  1  0  0  0  0
  1 28  1  0  0  0  0
  2  3  2  0  0  0  0
  2  4  1  0  0  0  0
  4 12  2  0  0  0  0
  4  5  1  0  0  0  0
  5  6  1  0  0  0  0
  6 11  2  0  0  0  0
  6  7  1  0  0  0  0
  7  8  2  0  0  0  0
  7 29  1  0  0  0  0
  8  9  1  0  0  0  0
  8 30  1  0  0  0  0
  9 10  2  0  0  0  0
  9 31  1  0  0  0  0
 10 11  1  0  0  0  0
 10 32  1  0  0  0  0
 11 12  1  0  0  0  0
 12 13  1  0  0  0  0
 13 14  1  0  0  0  0
 13 33  1  0  0  0  0
 14 15  2  0  0  0  0
 14 16  1  0  0  0  0
 16 25  2  0  0  0  0
 16 17  1  0  0  0  0
 17 18  2  0  0  0  0
 17 34  1  0  0  0  0
 18 19  1  0  0  0  0
 18 35  1  0  0  0  0
 19 20  1  0  0  0  0
 19 24  2  0  0  0  0
 20 21  1  0  0  0  0
 20 22  1  0  0  0  0
 20 23  1  0  0  0  0
 24 25  1  0  0  0  0
 24 36  1  0  0  0  0
 25 37  1  0  0  0  0
M  END
$$$$
