ZINC000000039222      none
 OpenBabel11202420153D

 26 27  0  0  0  0  0  0  0  0999 V2000
   29.7122   35.9201   59.8067 O   0  0  0  0  0  0  0  0  0  0  0  0
   30.5937   35.9590   60.6422 C   0  0  0  0  0  0  0  0  0  0  0  0
   31.8220   36.3859   60.3034 O   0  0  0  0  0  0  0  0  0  0  0  0
   32.1780   36.1908   59.1551 N   0  0  0  0  0  0  0  0  0  0  0  0
   32.2681   34.9658   58.6227 C   0  0  0  0  0  0  0  0  0  0  0  0
   32.0148   33.9291   59.1989 O   0  0  0  0  0  0  0  0  0  0  0  0
   32.7327   35.0798   57.1872 C   0  0  0  0  0  0  0  0  0  0  0  0
   32.9069   36.5986   56.9832 C   0  0  0  0  0  0  0  0  0  0  0  0
   32.5170   37.1834   58.3232 C   0  0  0  0  0  0  0  0  0  0  0  0
   32.5119   38.3643   58.5995 O   0  0  0  0  0  0  0  0  0  0  0  0
   30.3387   35.5805   61.9060 O   0  0  0  0  0  0  0  0  0  0  0  0
   30.9837   36.1215   62.7862 N   0  0  0  0  0  0  0  0  0  0  0  0
   30.5821   37.2459   63.3918 C   0  0  0  0  0  0  0  0  0  0  0  0
   29.5582   37.8482   63.1475 O   0  0  0  0  0  0  0  0  0  0  0  0
   31.6064   37.6445   64.4317 C   0  0  0  0  0  0  0  0  0  0  0  0
   32.6859   36.5492   64.3141 C   0  0  0  0  0  0  0  0  0  0  0  0
   32.1553   35.6440   63.2240 C   0  0  0  0  0  0  0  0  0  0  0  0
   32.7041   34.6438   62.8122 O   0  0  0  0  0  0  0  0  0  0  0  0
   31.9805   34.6848   56.5044 H   0  0  0  0  0  0  0  0  0  0  0  0
   33.6826   34.5629   57.0503 H   0  0  0  0  0  0  0  0  0  0  0  0
   32.2413   36.9590   56.1989 H   0  0  0  0  0  0  0  0  0  0  0  0
   33.9439   36.8375   56.7475 H   0  0  0  0  0  0  0  0  0  0  0  0
   31.1663   37.6435   65.4289 H   0  0  0  0  0  0  0  0  0  0  0  0
   32.0262   38.6233   64.1999 H   0  0  0  0  0  0  0  0  0  0  0  0
   32.7827   36.0035   65.2526 H   0  0  0  0  0  0  0  0  0  0  0  0
   33.6421   36.9828   64.0210 H   0  0  0  0  0  0  0  0  0  0  0  0
  1  2  2  0  0  0  0
  2  3  1  0  0  0  0
  2 11  1  0  0  0  0
  3  4  1  0  0  0  0
  4  9  1  0  0  0  0
  4  5  1  0  0  0  0
  5  6  2  0  0  0  0
  5  7  1  0  0  0  0
  7  8  1  0  0  0  0
  7 19  1  0  0  0  0
  7 20  1  0  0  0  0
  8  9  1  0  0  0  0
  8 21  1  0  0  0  0
  8 22  1  0  0  0  0
  9 10  2  0  0  0  0
 11 12  1  0  0  0  0
 12 17  1  0  0  0  0
 12 13  1  0  0  0  0
 13 14  2  0  0  0  0
 13 15  1  0  0  0  0
 15 16  1  0  0  0  0
 15 23  1  0  0  0  0
 15 24  1  0  0  0  0
 16 17  1  0  0  0  0
 16 25  1  0  0  0  0
 16 26  1  0  0  0  0
 17 18  2  0  0  0  0
M  END
$$$$
