ZINC000000032681      none
 OpenBabel11202420153D

 36 38  0  0  0  0  0  0  0  0999 V2000
   30.9187   37.9991   62.2232 C   0  0  0  0  0  0  0  0  0  0  0  0
   31.2501   36.5078   62.3083 C   0  0  0  0  0  0  0  0  0  0  0  0
   29.9914   35.7267   62.6911 C   0  0  0  0  0  0  0  0  0  0  0  0
   32.3305   36.2852   63.3685 C   0  0  0  0  0  0  0  0  0  0  0  0
   31.7519   36.0278   60.9709 C   0  0  0  0  0  0  0  0  0  0  0  0
   32.1152   34.7027   60.8069 C   0  0  0  0  0  0  0  0  0  0  0  0
   32.5750   34.2565   59.5852 C   0  0  0  0  0  0  0  0  0  0  0  0
   32.6734   35.1450   58.5132 C   0  0  0  0  0  0  0  0  0  0  0  0
   33.1653   34.6737   57.2011 C   0  0  0  0  0  0  0  0  0  0  0  0
   33.5461   33.4470   56.8988 N   0  0  0  0  0  0  0  0  0  0  0  0
   33.9113   33.4922   55.6006 C   0  0  0  0  0  0  0  0  0  0  0  0
   34.4178   32.3563   54.7895 C   0  0  0  0  0  0  0  0  0  0  0  0
   35.1027   31.3060   55.1827 N   0  0  0  0  0  0  0  0  0  0  0  0
   35.3340   30.5985   54.2306 O   0  0  0  0  0  0  0  0  0  0  0  0
   34.9091   30.9833   53.1667 N   0  0  0  0  0  0  0  0  0  0  0  0
   34.2785   32.1223   53.3341 C   0  0  0  0  0  0  0  0  0  0  0  0
   33.6407   32.9103   52.3843 N   0  0  0  0  0  0  0  0  0  0  0  0
   33.7424   34.7226   55.1899 N   0  0  0  0  0  0  0  0  0  0  0  0
   33.3109   35.4118   56.0898 O   0  0  0  0  0  0  0  0  0  0  0  0
   32.3108   36.4814   58.6870 C   0  0  0  0  0  0  0  0  0  0  0  0
   31.8471   36.9134   59.9125 C   0  0  0  0  0  0  0  0  0  0  0  0
   30.1490   38.1577   61.4679 H   0  0  0  0  0  0  0  0  0  0  0  0
   30.5555   38.3464   63.1905 H   0  0  0  0  0  0  0  0  0  0  0  0
   31.8154   38.5555   61.9505 H   0  0  0  0  0  0  0  0  0  0  0  0
   30.2274   34.6643   62.7517 H   0  0  0  0  0  0  0  0  0  0  0  0
   29.6283   36.0740   63.6584 H   0  0  0  0  0  0  0  0  0  0  0  0
   29.2216   35.8853   61.9357 H   0  0  0  0  0  0  0  0  0  0  0  0
   33.2271   36.8416   63.0959 H   0  0  0  0  0  0  0  0  0  0  0  0
   31.9674   36.6324   64.3358 H   0  0  0  0  0  0  0  0  0  0  0  0
   32.5666   35.2228   63.4291 H   0  0  0  0  0  0  0  0  0  0  0  0
   32.0383   34.0161   61.6372 H   0  0  0  0  0  0  0  0  0  0  0  0
   32.8579   33.2220   59.4583 H   0  0  0  0  0  0  0  0  0  0  0  0
   33.2101   33.7377   52.6506 H   0  0  0  0  0  0  0  0  0  0  0  0
   33.6260   32.6331   51.4549 H   0  0  0  0  0  0  0  0  0  0  0  0
   32.3888   37.1750   57.8628 H   0  0  0  0  0  0  0  0  0  0  0  0
   31.5623   37.9465   60.0471 H   0  0  0  0  0  0  0  0  0  0  0  0
  1  2  1  0  0  0  0
  1 22  1  0  0  0  0
  1 23  1  0  0  0  0
  1 24  1  0  0  0  0
  2  3  1  0  0  0  0
  2  4  1  0  0  0  0
  2  5  1  0  0  0  0
  3 25  1  0  0  0  0
  3 26  1  0  0  0  0
  3 27  1  0  0  0  0
  4 28  1  0  0  0  0
  4 29  1  0  0  0  0
  4 30  1  0  0  0  0
  5 21  2  0  0  0  0
  5  6  1  0  0  0  0
  6  7  2  0  0  0  0
  6 31  1  0  0  0  0
  7  8  1  0  0  0  0
  7 32  1  0  0  0  0
  8  9  1  0  0  0  0
  8 20  2  0  0  0  0
  9 19  1  0  0  0  0
  9 10  2  0  0  0  0
 10 11  1  0  0  0  0
 11 12  1  0  0  0  0
 11 18  2  0  0  0  0
 12 16  1  0  0  0  0
 12 13  2  0  0  0  0
 13 14  1  0  0  0  0
 14 15  1  0  0  0  0
 15 16  2  0  0  0  0
 16 17  1  0  0  0  0
 17 33  1  0  0  0  0
 17 34  1  0  0  0  0
 18 19  1  0  0  0  0
 20 21  1  0  0  0  0
 20 35  1  0  0  0  0
 21 36  1  0  0  0  0
M  END
$$$$
