ZINC000000027692      none
 OpenBabel11202420153D

 38 39  0  0  1  0  0  0  0  0999 V2000
   31.3370   33.0754   62.2397 C   0  0  0  0  0  0  0  0  0  0  0  0
   32.5223   34.0391   62.1530 C   0  0  0  0  0  0  0  0  0  0  0  0
   32.0420   35.3847   62.1395 O   0  0  0  0  0  0  0  0  0  0  0  0
   31.8967   35.9953   63.3342 C   0  0  0  0  0  0  0  0  0  0  0  0
   32.6210   35.6928   64.2641 O   0  0  0  0  0  0  0  0  0  0  0  0
   30.9027   36.9870   63.5055 C   0  0  0  0  0  0  0  0  0  0  0  0
   30.5078   37.7650   62.4747 C   0  0  0  0  0  0  0  0  0  0  0  0
   31.1367   37.5742   61.1186 C   0  0  0  0  0  0  0  0  0  0  0  0
   29.5517   38.7255   62.6427 N   0  0  0  0  0  0  0  0  0  0  0  0
   28.9341   38.9629   63.8068 C   0  0  0  0  0  0  0  0  0  0  0  0
   28.0910   39.8372   63.8574 O   0  0  0  0  0  0  0  0  0  0  0  0
   29.2210   38.2684   64.9255 N   0  0  0  0  0  0  0  0  0  0  0  0
   30.2445   37.2122   64.8517 C   0  0  2  0  0  0  0  0  0  0  0  0
   29.7826   36.2745   65.1609 H   0  0  0  0  0  0  0  0  0  0  0  0
   31.3258   37.5424   65.8480 C   0  0  0  0  0  0  0  0  0  0  0  0
   32.4757   38.1874   65.4319 C   0  0  0  0  0  0  0  0  0  0  0  0
   33.4652   38.4947   66.3465 C   0  0  0  0  0  0  0  0  0  0  0  0
   33.3096   38.1482   67.6758 C   0  0  0  0  0  0  0  0  0  0  0  0
   32.1625   37.4984   68.0908 C   0  0  0  0  0  0  0  0  0  0  0  0
   31.1703   37.1957   67.1768 C   0  0  0  0  0  0  0  0  0  0  0  0
   29.9197   36.4871   67.6294 C   0  0  0  0  0  0  0  0  0  0  0  0
   29.0719   36.2918   66.5339 F   0  0  0  0  0  0  0  0  0  0  0  0
   30.2601   35.2479   68.1825 F   0  0  0  0  0  0  0  0  0  0  0  0
   29.2662   37.2638   68.5923 F   0  0  0  0  0  0  0  0  0  0  0  0
   30.7264   33.3276   63.1068 H   0  0  0  0  0  0  0  0  0  0  0  0
   30.7348   33.1577   61.3349 H   0  0  0  0  0  0  0  0  0  0  0  0
   31.7053   32.0544   62.3393 H   0  0  0  0  0  0  0  0  0  0  0  0
   33.0828   33.8441   61.2386 H   0  0  0  0  0  0  0  0  0  0  0  0
   33.1724   33.8938   63.0156 H   0  0  0  0  0  0  0  0  0  0  0  0
   30.6262   36.7682   60.5915 H   0  0  0  0  0  0  0  0  0  0  0  0
   31.0490   38.4966   60.5445 H   0  0  0  0  0  0  0  0  0  0  0  0
   32.1898   37.3199   61.2390 H   0  0  0  0  0  0  0  0  0  0  0  0
   29.3029   39.2629   61.8745 H   0  0  0  0  0  0  0  0  0  0  0  0
   28.7644   38.4599   65.7596 H   0  0  0  0  0  0  0  0  0  0  0  0
   32.5991   38.4545   64.3926 H   0  0  0  0  0  0  0  0  0  0  0  0
   34.3617   39.0021   66.0222 H   0  0  0  0  0  0  0  0  0  0  0  0
   34.0846   38.3849   68.3899 H   0  0  0  0  0  0  0  0  0  0  0  0
   32.0412   37.2274   69.1292 H   0  0  0  0  0  0  0  0  0  0  0  0
  1  2  1  0  0  0  0
  1 25  1  0  0  0  0
  1 26  1  0  0  0  0
  1 27  1  0  0  0  0
  2  3  1  0  0  0  0
  2 28  1  0  0  0  0
  2 29  1  0  0  0  0
  3  4  1  0  0  0  0
  4  5  2  0  0  0  0
  4  6  1  0  0  0  0
  6 13  1  0  0  0  0
  6  7  2  0  0  0  0
  7  8  1  0  0  0  0
  7  9  1  0  0  0  0
  8 30  1  0  0  0  0
  8 31  1  0  0  0  0
  8 32  1  0  0  0  0
  9 10  1  0  0  0  0
  9 33  1  0  0  0  0
 10 11  2  0  0  0  0
 10 12  1  0  0  0  0
 12 13  1  0  0  0  0
 12 34  1  0  0  0  0
 13 14  1  1  0  0  0
 13 15  1  0  0  0  0
 15 20  2  0  0  0  0
 15 16  1  0  0  0  0
 16 17  2  0  0  0  0
 16 35  1  0  0  0  0
 17 18  1  0  0  0  0
 17 36  1  0  0  0  0
 18 19  2  0  0  0  0
 18 37  1  0  0  0  0
 19 20  1  0  0  0  0
 19 38  1  0  0  0  0
 20 21  1  0  0  0  0
 21 22  1  0  0  0  0
 21 23  1  0  0  0  0
 21 24  1  0  0  0  0
M  END
$$$$
