ZINC000000007621      none
 OpenBabel11202420153D

 32 32  0  0  1  0  0  0  0  0999 V2000
   32.4723   36.2162   63.3976 C   0  0  0  0  0  0  0  0  0  0  0  0
   31.8327   37.5521   63.7808 C   0  0  2  0  0  0  0  0  0  0  0  0
   32.2346   38.3570   63.1654 H   0  0  0  0  0  0  0  0  0  0  0  0
   32.0615   37.8508   65.2769 C   0  0  0  0  0  0  0  0  0  0  0  0
   30.7727   38.5126   65.7952 C   0  0  1  0  0  0  0  0  0  0  0  0
   30.1575   37.6620   66.9082 C   0  0  0  0  0  0  0  0  0  0  0  0
   30.8660   37.9189   68.1692 N   0  3  0  0  0  0  0  0  0  0  0  0
   30.5242   37.2909   68.8810 H   0  0  0  0  0  0  0  0  0  0  0  0
   31.8550   37.7699   68.0357 H   0  0  0  0  0  0  0  0  0  0  0  0
   30.7053   38.8727   68.4568 H   0  0  0  0  0  0  0  0  0  0  0  0
   31.0788   39.9176   66.3181 C   0  0  0  0  0  0  0  0  0  0  0  0
   29.9755   40.3602   67.2444 C   0  0  0  0  0  0  0  0  0  0  0  0
   29.0096   40.9572   66.8004 O   0  0  0  0  0  0  0  0  0  0  0  0
   30.0488   40.1214   68.4377 O   0  0  0  0  0  1  0  0  0  0  0  0
   29.8056   38.5932   64.5959 C   0  0  0  0  0  0  0  0  0  0  0  0
   30.2923   37.4769   63.6366 C   0  0  1  0  0  0  0  0  0  0  0  0
   29.9214   36.5038   63.9582 H   0  0  0  0  0  0  0  0  0  0  0  0
   29.8676   37.7719   62.1966 C   0  0  0  0  0  0  0  0  0  0  0  0
   32.0689   35.4255   64.0300 H   0  0  0  0  0  0  0  0  0  0  0  0
   33.5518   36.2772   63.5360 H   0  0  0  0  0  0  0  0  0  0  0  0
   32.2520   35.9942   62.3533 H   0  0  0  0  0  0  0  0  0  0  0  0
   32.2488   36.9235   65.8184 H   0  0  0  0  0  0  0  0  0  0  0  0
   32.9049   38.5307   65.3972 H   0  0  0  0  0  0  0  0  0  0  0  0
   29.1050   37.9205   67.0235 H   0  0  0  0  0  0  0  0  0  0  0  0
   30.2463   36.6067   66.6501 H   0  0  0  0  0  0  0  0  0  0  0  0
   32.0247   39.9056   66.8595 H   0  0  0  0  0  0  0  0  0  0  0  0
   31.1489   40.6102   65.4794 H   0  0  0  0  0  0  0  0  0  0  0  0
   28.7821   38.4012   64.9176 H   0  0  0  0  0  0  0  0  0  0  0  0
   29.8765   39.5682   64.1136 H   0  0  0  0  0  0  0  0  0  0  0  0
   30.3197   37.0401   61.5272 H   0  0  0  0  0  0  0  0  0  0  0  0
   28.7818   37.7134   62.1189 H   0  0  0  0  0  0  0  0  0  0  0  0
   30.1984   38.7723   61.9180 H   0  0  0  0  0  0  0  0  0  0  0  0
  1  2  1  0  0  0  0
  1 19  1  0  0  0  0
  1 20  1  0  0  0  0
  1 21  1  0  0  0  0
  2  3  1  6  0  0  0
  2 16  1  0  0  0  0
  2  4  1  0  0  0  0
  4  5  1  0  0  0  0
  4 22  1  0  0  0  0
  4 23  1  0  0  0  0
  5  6  1  1  0  0  0
  5 11  1  0  0  0  0
  5 15  1  0  0  0  0
  6  7  1  0  0  0  0
  6 24  1  0  0  0  0
  6 25  1  0  0  0  0
  7  8  1  0  0  0  0
  7  9  1  0  0  0  0
  7 10  1  0  0  0  0
 11 12  1  0  0  0  0
 11 26  1  0  0  0  0
 11 27  1  0  0  0  0
 12 13  2  0  0  0  0
 12 14  1  0  0  0  0
 15 16  1  0  0  0  0
 15 28  1  0  0  0  0
 15 29  1  0  0  0  0
 16 17  1  1  0  0  0
 16 18  1  0  0  0  0
 18 30  1  0  0  0  0
 18 31  1  0  0  0  0
 18 32  1  0  0  0  0
M  CHG  1   7   1
M  END
$$$$
