ZINC000000015471      none
 OpenBabel11202420153D

 22 23  0  0  0  0  0  0  0  0999 V2000
   31.9341   34.3321   59.4542 C   0  0  0  0  0  0  0  0  0  0  0  0
   32.3755   35.6012   58.7720 C   0  0  0  0  0  0  0  0  0  0  0  0
   32.3915   36.8215   59.3224 N   0  0  0  0  0  0  0  0  0  0  0  0
   32.8370   37.6935   58.4318 C   0  0  0  0  0  0  0  0  0  0  0  0
   33.1910   39.4075   58.2242 S   0  0  0  0  0  0  0  0  0  0  0  0
   33.7039   39.1229   56.5672 C   0  0  0  0  0  0  0  0  0  0  0  0
   33.5905   37.8508   56.2797 C   0  0  0  0  0  0  0  0  0  0  0  0
   33.9588   37.3064   54.9236 C   0  0  0  0  0  0  0  0  0  0  0  0
   33.1114   37.0398   57.2811 N   0  0  0  0  0  0  0  0  0  0  0  0
   32.8193   35.7007   57.5080 C   0  0  0  0  0  0  0  0  0  0  0  0
   32.9666   34.5726   56.5197 C   0  0  0  0  0  0  0  0  0  0  0  0
   34.2271   34.6826   55.8557 O   0  0  0  0  0  0  0  0  0  0  0  0
   30.8659   34.1858   59.2933 H   0  0  0  0  0  0  0  0  0  0  0  0
   32.4831   33.4868   59.0394 H   0  0  0  0  0  0  0  0  0  0  0  0
   32.1338   34.4058   60.5232 H   0  0  0  0  0  0  0  0  0  0  0  0
   34.0600   39.8836   55.8881 H   0  0  0  0  0  0  0  0  0  0  0  0
   35.0093   37.0154   54.9219 H   0  0  0  0  0  0  0  0  0  0  0  0
   33.7930   38.0732   54.1669 H   0  0  0  0  0  0  0  0  0  0  0  0
   33.3406   36.4366   54.7011 H   0  0  0  0  0  0  0  0  0  0  0  0
   32.9151   33.6195   57.0459 H   0  0  0  0  0  0  0  0  0  0  0  0
   32.1631   34.6259   55.7851 H   0  0  0  0  0  0  0  0  0  0  0  0
   34.3902   33.9875   55.2036 H   0  0  0  0  0  0  0  0  0  0  0  0
  1  2  1  0  0  0  0
  1 13  1  0  0  0  0
  1 14  1  0  0  0  0
  1 15  1  0  0  0  0
  2 10  2  0  0  0  0
  2  3  1  0  0  0  0
  3  4  2  0  0  0  0
  4  9  1  0  0  0  0
  4  5  1  0  0  0  0
  5  6  1  0  0  0  0
  6  7  2  0  0  0  0
  6 16  1  0  0  0  0
  7  8  1  0  0  0  0
  7  9  1  0  0  0  0
  8 17  1  0  0  0  0
  8 18  1  0  0  0  0
  8 19  1  0  0  0  0
  9 10  1  0  0  0  0
 10 11  1  0  0  0  0
 11 12  1  0  0  0  0
 11 20  1  0  0  0  0
 11 21  1  0  0  0  0
 12 22  1  0  0  0  0
M  END
$$$$
