ZINC000000000591      none
 OpenBabel11202420153D

 21 22  0  0  1  0  0  0  0  0999 V2000
   31.3976   36.1576   64.8672 N   0  0  0  0  0  0  0  0  0  0  0  0
   30.9432   36.6543   63.6857 C   0  0  0  0  0  0  0  0  0  0  0  0
   29.8050   36.2969   63.1363 N   0  0  0  0  0  0  0  0  0  0  0  0
   29.5869   36.9256   61.9816 C   0  0  0  0  0  0  0  0  0  0  0  0
   28.6241   36.8065   61.2501 O   0  0  0  0  0  0  0  0  0  0  0  0
   30.7897   37.8260   61.7755 C   0  0  2  0  0  0  0  0  0  0  0  0
   30.4860   38.8723   61.7435 H   0  0  0  0  0  0  0  0  0  0  0  0
   31.5264   37.4491   60.5159 C   0  0  0  0  0  0  0  0  0  0  0  0
   32.2081   38.4144   59.7987 C   0  0  0  0  0  0  0  0  0  0  0  0
   32.8873   38.0678   58.6458 C   0  0  0  0  0  0  0  0  0  0  0  0
   32.8775   36.7577   58.2051 C   0  0  0  0  0  0  0  0  0  0  0  0
   32.1915   35.7933   58.9194 C   0  0  0  0  0  0  0  0  0  0  0  0
   31.5157   36.1390   60.0747 C   0  0  0  0  0  0  0  0  0  0  0  0
   31.6104   37.5630   62.9551 O   0  0  0  0  0  0  0  0  0  0  0  0
   32.2473   36.4588   65.2253 H   0  0  0  0  0  0  0  0  0  0  0  0
   30.8720   35.5021   65.3519 H   0  0  0  0  0  0  0  0  0  0  0  0
   32.2127   39.4387   60.1411 H   0  0  0  0  0  0  0  0  0  0  0  0
   33.4236   38.8211   58.0879 H   0  0  0  0  0  0  0  0  0  0  0  0
   33.4060   36.4874   57.3029 H   0  0  0  0  0  0  0  0  0  0  0  0
   32.1837   34.7696   58.5752 H   0  0  0  0  0  0  0  0  0  0  0  0
   30.9798   35.3856   60.6329 H   0  0  0  0  0  0  0  0  0  0  0  0
  1  2  1  0  0  0  0
  1 15  1  0  0  0  0
  1 16  1  0  0  0  0
  2 14  1  0  0  0  0
  2  3  2  0  0  0  0
  3  4  1  0  0  0  0
  4  5  2  0  0  0  0
  4  6  1  0  0  0  0
  6  7  1  6  0  0  0
  6  8  1  0  0  0  0
  6 14  1  0  0  0  0
  8 13  2  0  0  0  0
  8  9  1  0  0  0  0
  9 10  2  0  0  0  0
  9 17  1  0  0  0  0
 10 11  1  0  0  0  0
 10 18  1  0  0  0  0
 11 12  2  0  0  0  0
 11 19  1  0  0  0  0
 12 13  1  0  0  0  0
 12 20  1  0  0  0  0
 13 21  1  0  0  0  0
M  END
$$$$
