ZINC000000004539      none
 OpenBabel11202420153D

 42 43  0  0  0  0  0  0  0  0999 V2000
   26.3284   41.1550   67.6503 C   0  0  0  0  0  0  0  0  0  0  0  0
   27.4464   40.5662   66.8289 C   0  0  0  0  0  0  0  0  0  0  0  0
   27.4212   40.3967   65.5386 N   0  0  0  0  0  0  0  0  0  0  0  0
   28.5928   39.8450   65.1413 C   0  0  0  0  0  0  0  0  0  0  0  0
   29.1440   39.4363   63.8483 C   0  0  0  0  0  0  0  0  0  0  0  0
   28.4983   39.5724   62.8252 O   0  0  0  0  0  0  0  0  0  0  0  0
   30.3833   38.9000   63.8166 N   0  0  0  0  0  0  0  0  0  0  0  0
   30.9552   38.4781   62.5356 C   0  0  0  0  0  0  0  0  0  0  0  0
   30.5898   37.0162   62.2707 C   0  0  0  0  0  0  0  0  0  0  0  0
   29.0674   36.8717   62.2219 C   0  0  0  0  0  0  0  0  0  0  0  0
   31.1494   36.1393   63.3926 C   0  0  0  0  0  0  0  0  0  0  0  0
   31.1008   38.7533   64.9428 C   0  0  0  0  0  0  0  0  0  0  0  0
   32.2148   38.2710   64.8700 O   0  0  0  0  0  0  0  0  0  0  0  0
   30.6306   39.1214   66.1476 N   0  0  0  0  0  0  0  0  0  0  0  0
   31.4644   38.9348   67.3377 C   0  0  0  0  0  0  0  0  0  0  0  0
   32.3129   40.1871   67.5674 C   0  0  0  0  0  0  0  0  0  0  0  0
   31.3953   41.3944   67.7716 C   0  0  0  0  0  0  0  0  0  0  0  0
   33.1835   39.9924   68.8103 C   0  0  0  0  0  0  0  0  0  0  0  0
   29.3761   39.6716   66.2761 C   0  0  0  0  0  0  0  0  0  0  0  0
   28.6407   40.1293   67.3235 N   0  0  0  0  0  0  0  0  0  0  0  0
   28.9153   40.1432   68.2537 H   0  0  0  0  0  0  0  0  0  0  0  0
   26.4566   42.2354   67.7170 H   0  0  0  0  0  0  0  0  0  0  0  0
   25.3726   40.9310   67.1766 H   0  0  0  0  0  0  0  0  0  0  0  0
   26.3474   40.7244   68.6515 H   0  0  0  0  0  0  0  0  0  0  0  0
   32.0398   38.5810   62.5704 H   0  0  0  0  0  0  0  0  0  0  0  0
   30.5565   39.1027   61.7363 H   0  0  0  0  0  0  0  0  0  0  0  0
   31.0153   36.7023   61.3176 H   0  0  0  0  0  0  0  0  0  0  0  0
   28.6686   37.4965   61.4226 H   0  0  0  0  0  0  0  0  0  0  0  0
   28.8071   35.8303   62.0332 H   0  0  0  0  0  0  0  0  0  0  0  0
   28.6419   37.1857   63.1751 H   0  0  0  0  0  0  0  0  0  0  0  0
   30.8892   35.0977   63.2040 H   0  0  0  0  0  0  0  0  0  0  0  0
   32.2340   36.2421   63.4276 H   0  0  0  0  0  0  0  0  0  0  0  0
   30.7239   36.4532   64.3458 H   0  0  0  0  0  0  0  0  0  0  0  0
   30.8266   38.7640   68.2050 H   0  0  0  0  0  0  0  0  0  0  0  0
   32.1179   38.0748   67.1922 H   0  0  0  0  0  0  0  0  0  0  0  0
   32.9505   40.3581   66.7002 H   0  0  0  0  0  0  0  0  0  0  0  0
   30.7575   41.2235   68.6389 H   0  0  0  0  0  0  0  0  0  0  0  0
   31.9998   42.2866   67.9352 H   0  0  0  0  0  0  0  0  0  0  0  0
   30.7750   41.5332   66.8862 H   0  0  0  0  0  0  0  0  0  0  0  0
   33.8372   39.1323   68.6649 H   0  0  0  0  0  0  0  0  0  0  0  0
   33.7880   40.8845   68.9740 H   0  0  0  0  0  0  0  0  0  0  0  0
   32.5456   39.8215   69.6776 H   0  0  0  0  0  0  0  0  0  0  0  0
  1  2  1  0  0  0  0
  1 22  1  0  0  0  0
  1 23  1  0  0  0  0
  1 24  1  0  0  0  0
  2 20  1  0  0  0  0
  2  3  2  0  0  0  0
  3  4  1  0  0  0  0
  4 19  2  0  0  0  0
  4  5  1  0  0  0  0
  5  6  2  0  0  0  0
  5  7  1  0  0  0  0
  7  8  1  0  0  0  0
  7 12  1  0  0  0  0
  8  9  1  0  0  0  0
  8 25  1  0  0  0  0
  8 26  1  0  0  0  0
  9 10  1  0  0  0  0
  9 11  1  0  0  0  0
  9 27  1  0  0  0  0
 10 28  1  0  0  0  0
 10 29  1  0  0  0  0
 10 30  1  0  0  0  0
 11 31  1  0  0  0  0
 11 32  1  0  0  0  0
 11 33  1  0  0  0  0
 12 13  2  0  0  0  0
 12 14  1  0  0  0  0
 14 15  1  0  0  0  0
 14 19  1  0  0  0  0
 15 16  1  0  0  0  0
 15 34  1  0  0  0  0
 15 35  1  0  0  0  0
 16 17  1  0  0  0  0
 16 18  1  0  0  0  0
 16 36  1  0  0  0  0
 17 37  1  0  0  0  0
 17 38  1  0  0  0  0
 17 39  1  0  0  0  0
 18 40  1  0  0  0  0
 18 41  1  0  0  0  0
 18 42  1  0  0  0  0
 19 20  1  0  0  0  0
 20 21  1  0  0  0  0
M  END
$$$$
