ZINC000000044866      none
 OpenBabel11202420153D

 48 50  0  0  1  0  0  0  0  0999 V2000
   33.0426   36.4658   67.7174 C   0  0  0  0  0  0  0  0  0  0  0  0
   32.5631   37.0599   66.3916 C   0  0  0  0  0  0  0  0  0  0  0  0
   33.7728   37.4707   65.5496 C   0  0  0  0  0  0  0  0  0  0  0  0
   31.7437   36.0152   65.6312 C   0  0  1  0  0  0  0  0  0  0  0  0
   32.2117   35.0367   65.7403 H   0  0  0  0  0  0  0  0  0  0  0  0
   30.3454   35.9684   66.1912 C   0  0  0  0  0  0  0  0  0  0  0  0
   30.0348   36.6989   67.1082 O   0  0  0  0  0  0  0  0  0  0  0  0
   29.4402   35.1149   65.6733 N   0  0  0  0  0  0  0  0  0  0  0  0
   28.1091   35.0902   66.2369 C   0  0  0  0  0  0  0  0  0  0  0  0
   28.0499   34.0789   67.4009 C   0  0  0  0  0  0  0  0  0  0  0  0
   28.1214   32.7031   66.8855 C   0  0  0  0  0  0  0  0  0  0  0  0
   29.4216   32.3706   66.1597 C   0  0  0  0  0  0  0  0  0  0  0  0
   29.3151   32.8051   64.7186 C   0  0  0  0  0  0  0  0  0  0  0  0
   29.8504   34.2395   64.5579 C   0  0  0  0  0  0  0  0  0  0  0  0
   31.6896   36.3751   64.2121 N   0  0  0  0  0  0  0  0  0  0  0  0
   32.1520   35.6025   63.2127 C   0  0  0  0  0  0  0  0  0  0  0  0
   32.6768   34.5149   63.3421 O   0  0  0  0  0  0  0  0  0  0  0  0
   31.9202   36.3015   61.9311 C   0  0  0  0  0  0  0  0  0  0  0  0
   32.1795   36.0001   60.6037 C   0  0  0  0  0  0  0  0  0  0  0  0
   31.8247   36.9016   59.6124 C   0  0  0  0  0  0  0  0  0  0  0  0
   31.2136   38.0977   59.9391 C   0  0  0  0  0  0  0  0  0  0  0  0
   30.9471   38.4122   61.2625 C   0  0  0  0  0  0  0  0  0  0  0  0
   31.2967   37.5209   62.2641 C   0  0  0  0  0  0  0  0  0  0  0  0
   31.1707   37.5217   63.7369 C   0  0  0  0  0  0  0  0  0  0  0  0
   30.6812   38.4091   64.4060 O   0  0  0  0  0  0  0  0  0  0  0  0
   33.6622   35.5910   67.5206 H   0  0  0  0  0  0  0  0  0  0  0  0
   33.6263   37.2101   68.2590 H   0  0  0  0  0  0  0  0  0  0  0  0
   32.1808   36.1731   68.3172 H   0  0  0  0  0  0  0  0  0  0  0  0
   31.9434   37.9348   66.5883 H   0  0  0  0  0  0  0  0  0  0  0  0
   33.4429   37.7375   64.5455 H   0  0  0  0  0  0  0  0  0  0  0  0
   34.2623   38.3283   66.0112 H   0  0  0  0  0  0  0  0  0  0  0  0
   34.4748   36.6390   65.4923 H   0  0  0  0  0  0  0  0  0  0  0  0
   27.8548   36.0821   66.6109 H   0  0  0  0  0  0  0  0  0  0  0  0
   27.3943   34.7987   65.4673 H   0  0  0  0  0  0  0  0  0  0  0  0
   27.1167   34.2109   67.9483 H   0  0  0  0  0  0  0  0  0  0  0  0
   28.8884   34.2558   68.0745 H   0  0  0  0  0  0  0  0  0  0  0  0
   27.2911   32.5480   66.1965 H   0  0  0  0  0  0  0  0  0  0  0  0
   28.0074   32.0154   67.7235 H   0  0  0  0  0  0  0  0  0  0  0  0
   29.5980   31.2958   66.2034 H   0  0  0  0  0  0  0  0  0  0  0  0
   30.2491   32.8951   66.6374 H   0  0  0  0  0  0  0  0  0  0  0  0
   28.2709   32.7719   64.4073 H   0  0  0  0  0  0  0  0  0  0  0  0
   29.8984   32.1292   64.0934 H   0  0  0  0  0  0  0  0  0  0  0  0
   29.4725   34.6557   63.6240 H   0  0  0  0  0  0  0  0  0  0  0  0
   30.9392   34.2069   64.5154 H   0  0  0  0  0  0  0  0  0  0  0  0
   32.6560   35.0668   60.3426 H   0  0  0  0  0  0  0  0  0  0  0  0
   32.0267   36.6677   58.5776 H   0  0  0  0  0  0  0  0  0  0  0  0
   30.9415   38.7918   59.1577 H   0  0  0  0  0  0  0  0  0  0  0  0
   30.4688   39.3479   61.5118 H   0  0  0  0  0  0  0  0  0  0  0  0
  1  2  1  0  0  0  0
  1 26  1  0  0  0  0
  1 27  1  0  0  0  0
  1 28  1  0  0  0  0
  2  3  1  0  0  0  0
  2  4  1  0  0  0  0
  2 29  1  0  0  0  0
  3 30  1  0  0  0  0
  3 31  1  0  0  0  0
  3 32  1  0  0  0  0
  4  5  1  1  0  0  0
  4  6  1  0  0  0  0
  4 15  1  0  0  0  0
  6  7  2  0  0  0  0
  6  8  1  0  0  0  0
  8 14  1  0  0  0  0
  8  9  1  0  0  0  0
  9 10  1  0  0  0  0
  9 33  1  0  0  0  0
  9 34  1  0  0  0  0
 10 11  1  0  0  0  0
 10 35  1  0  0  0  0
 10 36  1  0  0  0  0
 11 12  1  0  0  0  0
 11 37  1  0  0  0  0
 11 38  1  0  0  0  0
 12 13  1  0  0  0  0
 12 39  1  0  0  0  0
 12 40  1  0  0  0  0
 13 14  1  0  0  0  0
 13 41  1  0  0  0  0
 13 42  1  0  0  0  0
 14 43  1  0  0  0  0
 14 44  1  0  0  0  0
 15 24  1  0  0  0  0
 15 16  1  0  0  0  0
 16 17  2  0  0  0  0
 16 18  1  0  0  0  0
 18 23  2  0  0  0  0
 18 19  1  0  0  0  0
 19 20  2  0  0  0  0
 19 45  1  0  0  0  0
 20 21  1  0  0  0  0
 20 46  1  0  0  0  0
 21 22  2  0  0  0  0
 21 47  1  0  0  0  0
 22 23  1  0  0  0  0
 22 48  1  0  0  0  0
 23 24  1  0  0  0  0
 24 25  2  0  0  0  0
M  END
$$$$
