ZINC000000039679      none
 OpenBabel11202420153D

 20 21  0  0  0  0  0  0  0  0999 V2000
   33.3096   40.8324   58.8362 N   0  0  0  0  0  0  0  0  0  0  0  0
   33.2528   39.5478   58.3165 C   0  0  0  0  0  0  0  0  0  0  0  0
   33.6376   39.3257   57.0769 N   0  0  0  0  0  0  0  0  0  0  0  0
   33.5826   38.0834   56.5745 C   0  0  0  0  0  0  0  0  0  0  0  0
   33.9881   37.8212   55.2561 C   0  0  0  0  0  0  0  0  0  0  0  0
   33.9234   36.5508   54.7688 C   0  0  0  0  0  0  0  0  0  0  0  0
   33.4596   35.5039   55.5609 C   0  0  0  0  0  0  0  0  0  0  0  0
   33.0586   35.7223   56.8442 C   0  0  0  0  0  0  0  0  0  0  0  0
   33.1116   37.0191   57.3799 C   0  0  0  0  0  0  0  0  0  0  0  0
   32.7227   37.2590   58.6409 N   0  0  0  0  0  0  0  0  0  0  0  0
   32.7820   38.4833   59.1222 C   0  0  0  0  0  0  0  0  0  0  0  0
   32.3804   38.7313   60.4262 N   0  0  0  0  0  0  0  0  0  0  0  0
   33.6320   41.5640   58.2868 H   0  0  0  0  0  0  0  0  0  0  0  0
   33.0269   40.9992   59.7489 H   0  0  0  0  0  0  0  0  0  0  0  0
   34.3503   38.6238   54.6306 H   0  0  0  0  0  0  0  0  0  0  0  0
   34.2404   36.3522   53.7556 H   0  0  0  0  0  0  0  0  0  0  0  0
   33.4175   34.5051   55.1523 H   0  0  0  0  0  0  0  0  0  0  0  0
   32.7016   34.9008   57.4477 H   0  0  0  0  0  0  0  0  0  0  0  0
   32.4226   39.6320   60.7836 H   0  0  0  0  0  0  0  0  0  0  0  0
   32.0573   38.0041   60.9809 H   0  0  0  0  0  0  0  0  0  0  0  0
  1  2  1  0  0  0  0
  1 13  1  0  0  0  0
  1 14  1  0  0  0  0
  2 11  2  0  0  0  0
  2  3  1  0  0  0  0
  3  4  2  0  0  0  0
  4  9  1  0  0  0  0
  4  5  1  0  0  0  0
  5  6  2  0  0  0  0
  5 15  1  0  0  0  0
  6  7  1  0  0  0  0
  6 16  1  0  0  0  0
  7  8  2  0  0  0  0
  7 17  1  0  0  0  0
  8  9  1  0  0  0  0
  8 18  1  0  0  0  0
  9 10  2  0  0  0  0
 10 11  1  0  0  0  0
 11 12  1  0  0  0  0
 12 19  1  0  0  0  0
 12 20  1  0  0  0  0
M  END
$$$$
