ZINC000000034094      none
 OpenBabel11202420153D

 24 24  0  0  0  0  0  0  0  0999 V2000
   33.4345   36.7785   54.5273 C   0  0  0  0  0  0  0  0  0  0  0  0
   33.2246   37.4155   55.8769 C   0  0  0  0  0  0  0  0  0  0  0  0
   32.6525   38.4763   55.9619 O   0  0  0  0  0  0  0  0  0  0  0  0
   33.6737   36.8043   56.9847 O   0  0  0  0  0  0  0  0  0  0  0  0
   32.9799   37.0211   58.1334 C   0  0  0  0  0  0  0  0  0  0  0  0
   32.8475   38.3117   58.6310 C   0  0  0  0  0  0  0  0  0  0  0  0
   32.1390   38.5417   59.7966 C   0  0  0  0  0  0  0  0  0  0  0  0
   31.5668   37.4901   60.4806 C   0  0  0  0  0  0  0  0  0  0  0  0
   31.6983   36.1845   59.9914 C   0  0  0  0  0  0  0  0  0  0  0  0
   31.0917   35.0611   60.7154 C   0  0  0  0  0  0  0  0  0  0  0  0
   31.4648   34.7968   62.0020 C   0  0  0  0  0  0  0  0  0  0  0  0
   32.3292   35.7025   62.6971 C   0  0  0  0  0  0  0  0  0  0  0  0
   33.0150   36.4208   63.2486 N   0  0  0  0  0  0  0  0  0  0  0  0
   30.9916   33.6143   62.6561 C   0  0  0  0  0  0  0  0  0  0  0  0
   30.6161   32.6759   63.1751 N   0  0  0  0  0  0  0  0  0  0  0  0
   32.4114   35.9562   58.8086 C   0  0  0  0  0  0  0  0  0  0  0  0
   32.5874   36.1333   54.2944 H   0  0  0  0  0  0  0  0  0  0  0  0
   33.5186   37.5558   53.7677 H   0  0  0  0  0  0  0  0  0  0  0  0
   34.3490   36.1857   54.5435 H   0  0  0  0  0  0  0  0  0  0  0  0
   33.2966   39.1398   58.1028 H   0  0  0  0  0  0  0  0  0  0  0  0
   32.0377   39.5482   60.1747 H   0  0  0  0  0  0  0  0  0  0  0  0
   31.0176   37.6732   61.3924 H   0  0  0  0  0  0  0  0  0  0  0  0
   30.3504   34.4434   60.2303 H   0  0  0  0  0  0  0  0  0  0  0  0
   32.5169   34.9523   58.4245 H   0  0  0  0  0  0  0  0  0  0  0  0
  1  2  1  0  0  0  0
  1 17  1  0  0  0  0
  1 18  1  0  0  0  0
  1 19  1  0  0  0  0
  2  3  2  0  0  0  0
  2  4  1  0  0  0  0
  4  5  1  0  0  0  0
  5 16  2  0  0  0  0
  5  6  1  0  0  0  0
  6  7  2  0  0  0  0
  6 20  1  0  0  0  0
  7  8  1  0  0  0  0
  7 21  1  0  0  0  0
  8  9  2  0  0  0  0
  8 22  1  0  0  0  0
  9 10  1  0  0  0  0
  9 16  1  0  0  0  0
 10 11  2  0  0  0  0
 10 23  1  0  0  0  0
 11 12  1  0  0  0  0
 11 14  1  0  0  0  0
 12 13  3  0  0  0  0
 14 15  3  0  0  0  0
 16 24  1  0  0  0  0
M  END
$$$$
