ZINC000000020318      none
 OpenBabel11202420153D

 42 43  0  0  1  0  0  0  0  0999 V2000
   30.2634   38.9600   63.4342 C   0  0  0  0  0  0  0  0  0  0  0  0
   30.1567   37.5917   62.7579 C   0  0  0  0  0  0  0  0  0  0  0  0
   28.7440   37.1614   62.3576 C   0  0  0  0  0  0  0  0  0  0  0  0
   31.3104   37.1606   61.8500 C   0  0  0  0  0  0  0  0  0  0  0  0
   30.9683   36.3446   60.6302 C   0  0  0  0  0  0  0  0  0  0  0  0
   30.1660   36.7660   59.8242 O   0  0  0  0  0  0  0  0  0  0  0  0
   31.5579   35.1489   60.4320 N   0  0  0  0  0  0  0  0  0  0  0  0
   31.2298   34.3585   59.2430 C   0  0  2  0  0  0  0  0  0  0  0  0
   30.1926   34.5396   58.9610 H   0  0  0  0  0  0  0  0  0  0  0  0
   31.4198   32.8943   59.5451 C   0  0  0  0  0  0  0  0  0  0  0  0
   30.6645   31.9727   58.9152 N   0  0  0  0  0  0  0  0  0  0  0  0
   32.2523   32.5453   60.3550 O   0  0  0  0  0  0  0  0  0  0  0  0
   32.1362   34.7588   58.1076 C   0  0  0  0  0  0  0  0  0  0  0  0
   32.4847   33.8332   57.1419 C   0  0  0  0  0  0  0  0  0  0  0  0
   33.3131   34.2016   56.0984 C   0  0  0  0  0  0  0  0  0  0  0  0
   33.7990   35.4933   56.0246 C   0  0  0  0  0  0  0  0  0  0  0  0
   33.4551   36.4176   56.9935 C   0  0  0  0  0  0  0  0  0  0  0  0
   32.6238   36.0504   58.0349 C   0  0  0  0  0  0  0  0  0  0  0  0
   31.1253   36.4990   63.2172 C   0  0  0  0  0  0  0  0  0  0  0  0
   30.6071   35.0596   63.2410 C   0  0  0  0  0  0  0  0  0  0  0  0
   32.1259   36.8587   64.3173 C   0  0  0  0  0  0  0  0  0  0  0  0
   29.5185   39.6336   63.0107 H   0  0  0  0  0  0  0  0  0  0  0  0
   30.0880   38.8509   64.5045 H   0  0  0  0  0  0  0  0  0  0  0  0
   31.2597   39.3701   63.2692 H   0  0  0  0  0  0  0  0  0  0  0  0
   28.7203   36.0813   62.2137 H   0  0  0  0  0  0  0  0  0  0  0  0
   28.0430   37.4386   63.1450 H   0  0  0  0  0  0  0  0  0  0  0  0
   28.4624   37.6579   61.4291 H   0  0  0  0  0  0  0  0  0  0  0  0
   32.1451   37.8519   61.7343 H   0  0  0  0  0  0  0  0  0  0  0  0
   32.1997   34.8118   61.0766 H   0  0  0  0  0  0  0  0  0  0  0  0
   29.9986   32.2519   58.2675 H   0  0  0  0  0  0  0  0  0  0  0  0
   30.7869   31.0303   59.1096 H   0  0  0  0  0  0  0  0  0  0  0  0
   32.1074   32.8229   57.2012 H   0  0  0  0  0  0  0  0  0  0  0  0
   33.5823   33.4794   55.3419 H   0  0  0  0  0  0  0  0  0  0  0  0
   34.4487   35.7805   55.2110 H   0  0  0  0  0  0  0  0  0  0  0  0
   33.8355   37.4269   56.9363 H   0  0  0  0  0  0  0  0  0  0  0  0
   32.3547   36.7725   58.7916 H   0  0  0  0  0  0  0  0  0  0  0  0
   31.3985   34.3942   63.5860 H   0  0  0  0  0  0  0  0  0  0  0  0
   29.7548   34.9914   63.9170 H   0  0  0  0  0  0  0  0  0  0  0  0
   30.2989   34.7677   62.2371 H   0  0  0  0  0  0  0  0  0  0  0  0
   32.7575   37.6803   63.9795 H   0  0  0  0  0  0  0  0  0  0  0  0
   31.5860   37.1608   65.2148 H   0  0  0  0  0  0  0  0  0  0  0  0
   32.7469   35.9915   64.5415 H   0  0  0  0  0  0  0  0  0  0  0  0
  1  2  1  0  0  0  0
  1 22  1  0  0  0  0
  1 23  1  0  0  0  0
  1 24  1  0  0  0  0
  2 19  1  0  0  0  0
  2  3  1  0  0  0  0
  2  4  1  0  0  0  0
  3 25  1  0  0  0  0
  3 26  1  0  0  0  0
  3 27  1  0  0  0  0
  4  5  1  0  0  0  0
  4 19  1  0  0  0  0
  4 28  1  0  0  0  0
  5  6  2  0  0  0  0
  5  7  1  0  0  0  0
  7  8  1  0  0  0  0
  7 29  1  0  0  0  0
  8  9  1  6  0  0  0
  8 10  1  0  0  0  0
  8 13  1  0  0  0  0
 10 11  1  0  0  0  0
 10 12  2  0  0  0  0
 11 30  1  0  0  0  0
 11 31  1  0  0  0  0
 13 18  2  0  0  0  0
 13 14  1  0  0  0  0
 14 15  2  0  0  0  0
 14 32  1  0  0  0  0
 15 16  1  0  0  0  0
 15 33  1  0  0  0  0
 16 17  2  0  0  0  0
 16 34  1  0  0  0  0
 17 18  1  0  0  0  0
 17 35  1  0  0  0  0
 18 36  1  0  0  0  0
 19 20  1  0  0  0  0
 19 21  1  0  0  0  0
 20 37  1  0  0  0  0
 20 38  1  0  0  0  0
 20 39  1  0  0  0  0
 21 40  1  0  0  0  0
 21 41  1  0  0  0  0
 21 42  1  0  0  0  0
M  END
$$$$
