ZINC000000038522      none
 OpenBabel11202420153D

 35 36  0  0  0  0  0  0  0  0999 V2000
   30.7842   38.9384   67.7486 C   0  0  0  0  0  0  0  0  0  0  0  0
   31.0955   38.7395   66.2876 C   0  0  0  0  0  0  0  0  0  0  0  0
   30.3505   39.3987   65.3272 C   0  0  0  0  0  0  0  0  0  0  0  0
   30.6339   39.2182   63.9873 C   0  0  0  0  0  0  0  0  0  0  0  0
   31.6671   38.3747   63.6056 C   0  0  0  0  0  0  0  0  0  0  0  0
   31.9478   38.1953   62.2880 O   0  0  0  0  0  0  0  0  0  0  0  0
   30.8580   38.3108   61.3709 C   0  0  0  0  0  0  0  0  0  0  0  0
   31.3564   38.0826   59.9672 C   0  0  0  0  0  0  0  0  0  0  0  0
   30.6214   37.6052   59.1353 O   0  0  0  0  0  0  0  0  0  0  0  0
   32.6169   38.4094   59.6408 O   0  0  0  0  0  0  0  0  0  0  0  0
   33.0023   38.1776   58.3581 C   0  0  0  0  0  0  0  0  0  0  0  0
   33.4288   39.2295   57.5599 C   0  0  0  0  0  0  0  0  0  0  0  0
   33.8204   38.9916   56.2570 C   0  0  0  0  0  0  0  0  0  0  0  0
   33.7878   37.7056   55.7476 C   0  0  0  0  0  0  0  0  0  0  0  0
   34.3321   37.3817   53.9657 Br  0  0  0  0  0  0  0  0  0  0  0  0
   33.3631   36.6555   56.5416 C   0  0  0  0  0  0  0  0  0  0  0  0
   33.3290   35.2558   55.9842 C   0  0  0  0  0  0  0  0  0  0  0  0
   32.9704   36.8892   57.8455 C   0  0  0  0  0  0  0  0  0  0  0  0
   32.4095   37.7101   64.5708 C   0  0  0  0  0  0  0  0  0  0  0  0
   32.1261   37.8987   65.9097 C   0  0  0  0  0  0  0  0  0  0  0  0
   30.0524   38.1965   68.0684 H   0  0  0  0  0  0  0  0  0  0  0  0
   31.6969   38.8241   68.3334 H   0  0  0  0  0  0  0  0  0  0  0  0
   30.3782   39.9383   67.9007 H   0  0  0  0  0  0  0  0  0  0  0  0
   29.5461   40.0549   65.6250 H   0  0  0  0  0  0  0  0  0  0  0  0
   30.0513   39.7329   63.2376 H   0  0  0  0  0  0  0  0  0  0  0  0
   30.4250   39.3083   61.4450 H   0  0  0  0  0  0  0  0  0  0  0  0
   30.0992   37.5665   61.6127 H   0  0  0  0  0  0  0  0  0  0  0  0
   33.4547   40.2333   57.9573 H   0  0  0  0  0  0  0  0  0  0  0  0
   34.1523   39.8100   55.6353 H   0  0  0  0  0  0  0  0  0  0  0  0
   34.2865   34.7682   56.1679 H   0  0  0  0  0  0  0  0  0  0  0  0
   32.5341   34.6904   56.4705 H   0  0  0  0  0  0  0  0  0  0  0  0
   33.1420   35.2964   54.9112 H   0  0  0  0  0  0  0  0  0  0  0  0
   32.6386   36.0691   58.4650 H   0  0  0  0  0  0  0  0  0  0  0  0
   33.2113   37.0494   64.2760 H   0  0  0  0  0  0  0  0  0  0  0  0
   32.7066   37.3851   66.6617 H   0  0  0  0  0  0  0  0  0  0  0  0
  1  2  1  0  0  0  0
  1 21  1  0  0  0  0
  1 22  1  0  0  0  0
  1 23  1  0  0  0  0
  2 20  2  0  0  0  0
  2  3  1  0  0  0  0
  3  4  2  0  0  0  0
  3 24  1  0  0  0  0
  4  5  1  0  0  0  0
  4 25  1  0  0  0  0
  5  6  1  0  0  0  0
  5 19  2  0  0  0  0
  6  7  1  0  0  0  0
  7  8  1  0  0  0  0
  7 26  1  0  0  0  0
  7 27  1  0  0  0  0
  8  9  2  0  0  0  0
  8 10  1  0  0  0  0
 10 11  1  0  0  0  0
 11 18  2  0  0  0  0
 11 12  1  0  0  0  0
 12 13  2  0  0  0  0
 12 28  1  0  0  0  0
 13 14  1  0  0  0  0
 13 29  1  0  0  0  0
 14 15  1  0  0  0  0
 14 16  2  0  0  0  0
 16 17  1  0  0  0  0
 16 18  1  0  0  0  0
 17 30  1  0  0  0  0
 17 31  1  0  0  0  0
 17 32  1  0  0  0  0
 18 33  1  0  0  0  0
 19 20  1  0  0  0  0
 19 34  1  0  0  0  0
 20 35  1  0  0  0  0
M  END
$$$$
