ZINC000000038098      none
 OpenBabel11202420153D

 38 40  0  0  1  0  0  0  0  0999 V2000
   29.0231   37.0115   62.3978 C   0  0  0  0  0  0  0  0  0  0  0  0
   30.1526   38.0206   62.1818 C   0  0  2  0  0  0  0  0  0  0  0  0
   29.7450   39.0315   62.1942 H   0  0  0  0  0  0  0  0  0  0  0  0
   30.8230   37.7562   60.8310 C   0  0  0  0  0  0  0  0  0  0  0  0
   31.4368   36.4205   60.8476 N   0  0  0  0  0  0  0  0  0  0  0  0
   32.0059   36.1235   59.6285 C   0  0  0  0  0  0  0  0  0  0  0  0
   32.5341   36.9992   58.7538 O   0  0  0  0  0  0  0  0  0  0  0  0
   32.9867   36.3104   57.6885 C   0  0  0  0  0  0  0  0  0  0  0  0
   33.6410   36.9049   56.5045 C   0  0  0  0  0  0  0  0  0  0  0  0
   34.0757   36.0870   55.4598 C   0  0  0  0  0  0  0  0  0  0  0  0
   34.6810   36.6477   54.3548 C   0  0  0  0  0  0  0  0  0  0  0  0
   34.8681   38.0192   54.2853 C   0  0  0  0  0  0  0  0  0  0  0  0
   35.4668   38.5627   53.2030 F   0  0  0  0  0  0  0  0  0  0  0  0
   34.4437   38.8351   55.3221 C   0  0  0  0  0  0  0  0  0  0  0  0
   33.8321   38.2858   56.4292 C   0  0  0  0  0  0  0  0  0  0  0  0
   32.7535   35.0353   57.8608 N   0  0  0  0  0  0  0  0  0  0  0  0
   32.1400   34.8649   59.0622 C   0  0  0  0  0  0  0  0  0  0  0  0
   31.7135   33.6230   59.6334 C   0  0  0  0  0  0  0  0  0  0  0  0
   31.3752   32.6377   60.0865 N   0  0  0  0  0  0  0  0  0  0  0  0
   32.4256   36.3149   61.9303 C   0  0  0  0  0  0  0  0  0  0  0  0
   31.7392   36.5937   63.2701 C   0  0  1  0  0  0  0  0  0  0  0  0
   30.9806   35.8333   63.4556 H   0  0  0  0  0  0  0  0  0  0  0  0
   32.7783   36.5633   64.3927 C   0  0  0  0  0  0  0  0  0  0  0  0
   31.1213   37.8837   63.2250 O   0  0  0  0  0  0  0  0  0  0  0  0
   29.4314   36.0009   62.3854 H   0  0  0  0  0  0  0  0  0  0  0  0
   28.2859   37.1154   61.6016 H   0  0  0  0  0  0  0  0  0  0  0  0
   28.5472   37.1993   63.3603 H   0  0  0  0  0  0  0  0  0  0  0  0
   30.0762   37.8039   60.0385 H   0  0  0  0  0  0  0  0  0  0  0  0
   31.5920   38.5080   60.6531 H   0  0  0  0  0  0  0  0  0  0  0  0
   33.9343   35.0177   55.5149 H   0  0  0  0  0  0  0  0  0  0  0  0
   35.0135   36.0165   53.5441 H   0  0  0  0  0  0  0  0  0  0  0  0
   34.5922   39.9033   55.2627 H   0  0  0  0  0  0  0  0  0  0  0  0
   33.5012   38.9227   57.2362 H   0  0  0  0  0  0  0  0  0  0  0  0
   32.8486   35.3104   61.9402 H   0  0  0  0  0  0  0  0  0  0  0  0
   33.2203   37.0435   61.7699 H   0  0  0  0  0  0  0  0  0  0  0  0
   33.5357   37.3248   64.2074 H   0  0  0  0  0  0  0  0  0  0  0  0
   32.2890   36.7619   65.3462 H   0  0  0  0  0  0  0  0  0  0  0  0
   33.2504   35.5813   64.4241 H   0  0  0  0  0  0  0  0  0  0  0  0
  1  2  1  0  0  0  0
  1 25  1  0  0  0  0
  1 26  1  0  0  0  0
  1 27  1  0  0  0  0
  2  3  1  1  0  0  0
  2 24  1  0  0  0  0
  2  4  1  0  0  0  0
  4  5  1  0  0  0  0
  4 28  1  0  0  0  0
  4 29  1  0  0  0  0
  5  6  1  0  0  0  0
  5 20  1  0  0  0  0
  6 17  2  0  0  0  0
  6  7  1  0  0  0  0
  7  8  1  0  0  0  0
  8  9  1  0  0  0  0
  8 16  2  0  0  0  0
  9 15  2  0  0  0  0
  9 10  1  0  0  0  0
 10 11  2  0  0  0  0
 10 30  1  0  0  0  0
 11 12  1  0  0  0  0
 11 31  1  0  0  0  0
 12 13  1  0  0  0  0
 12 14  2  0  0  0  0
 14 15  1  0  0  0  0
 14 32  1  0  0  0  0
 15 33  1  0  0  0  0
 16 17  1  0  0  0  0
 17 18  1  0  0  0  0
 18 19  3  0  0  0  0
 20 21  1  0  0  0  0
 20 34  1  0  0  0  0
 20 35  1  0  0  0  0
 21 22  1  1  0  0  0
 21 23  1  0  0  0  0
 21 24  1  0  0  0  0
 23 36  1  0  0  0  0
 23 37  1  0  0  0  0
 23 38  1  0  0  0  0
M  END
$$$$
