ZINC000000029036      none
 OpenBabel11202420163D

 38 40  0  0  0  0  0  0  0  0999 V2000
   27.8729   35.2611   66.9395 C   0  0  0  0  0  0  0  0  0  0  0  0
   28.7095   35.7522   65.7863 C   0  0  0  0  0  0  0  0  0  0  0  0
   29.2440   36.9910   65.6758 C   0  0  0  0  0  0  0  0  0  0  0  0
   29.9435   37.0350   64.4636 C   0  0  0  0  0  0  0  0  0  0  0  0
   29.7970   35.7880   63.8796 C   0  0  0  0  0  0  0  0  0  0  0  0
   30.3367   35.3811   62.6455 C   0  0  0  0  0  0  0  0  0  0  0  0
   31.7089   35.3953   62.4507 C   0  0  0  0  0  0  0  0  0  0  0  0
   32.5773   35.8242   63.5055 C   0  0  0  0  0  0  0  0  0  0  0  0
   33.2660   36.1644   64.3423 N   0  0  0  0  0  0  0  0  0  0  0  0
   32.2724   34.9650   61.1648 C   0  0  0  0  0  0  0  0  0  0  0  0
   33.0445   34.0252   61.1230 O   0  0  0  0  0  0  0  0  0  0  0  0
   31.9348   35.6107   60.0312 N   0  0  0  0  0  0  0  0  0  0  0  0
   30.9987   36.7471   60.0469 C   0  0  0  0  0  0  0  0  0  0  0  0
   31.7713   37.9912   59.5946 C   0  0  0  0  0  0  0  0  0  0  0  0
   32.5675   37.7033   58.3490 C   0  0  0  0  0  0  0  0  0  0  0  0
   32.9766   38.7872   57.5814 C   0  0  0  0  0  0  0  0  0  0  0  0
   33.7193   38.5949   56.4354 C   0  0  0  0  0  0  0  0  0  0  0  0
   34.0609   37.3135   56.0444 C   0  0  0  0  0  0  0  0  0  0  0  0
   33.6525   36.2354   56.8021 C   0  0  0  0  0  0  0  0  0  0  0  0
   32.9021   36.4275   57.9543 C   0  0  0  0  0  0  0  0  0  0  0  0
   32.4802   35.2056   58.7311 C   0  0  0  0  0  0  0  0  0  0  0  0
   29.0382   35.0347   64.7043 O   0  0  0  0  0  0  0  0  0  0  0  0
   26.8213   35.4667   66.7390 H   0  0  0  0  0  0  0  0  0  0  0  0
   28.0163   34.1873   67.0611 H   0  0  0  0  0  0  0  0  0  0  0  0
   28.1756   35.7739   67.8524 H   0  0  0  0  0  0  0  0  0  0  0  0
   29.1486   37.7957   66.3897 H   0  0  0  0  0  0  0  0  0  0  0  0
   30.4901   37.8761   64.0631 H   0  0  0  0  0  0  0  0  0  0  0  0
   29.6819   35.0575   61.8499 H   0  0  0  0  0  0  0  0  0  0  0  0
   30.1728   36.5542   59.3622 H   0  0  0  0  0  0  0  0  0  0  0  0
   30.6150   36.8949   61.0563 H   0  0  0  0  0  0  0  0  0  0  0  0
   32.4492   38.3031   60.3892 H   0  0  0  0  0  0  0  0  0  0  0  0
   31.0642   38.7951   59.3903 H   0  0  0  0  0  0  0  0  0  0  0  0
   32.7108   39.7889   57.8851 H   0  0  0  0  0  0  0  0  0  0  0  0
   34.0335   39.4430   55.8451 H   0  0  0  0  0  0  0  0  0  0  0  0
   34.6453   37.1572   55.1497 H   0  0  0  0  0  0  0  0  0  0  0  0
   33.9187   35.2342   56.4967 H   0  0  0  0  0  0  0  0  0  0  0  0
   33.3434   34.5582   58.8857 H   0  0  0  0  0  0  0  0  0  0  0  0
   31.7177   34.6649   58.1704 H   0  0  0  0  0  0  0  0  0  0  0  0
  1  2  1  0  0  0  0
  1 23  1  0  0  0  0
  1 24  1  0  0  0  0
  1 25  1  0  0  0  0
  2 22  1  0  0  0  0
  2  3  2  0  0  0  0
  3  4  1  0  0  0  0
  3 26  1  0  0  0  0
  4  5  2  0  0  0  0
  4 27  1  0  0  0  0
  5  6  1  0  0  0  0
  5 22  1  0  0  0  0
  6  7  2  0  0  0  0
  6 28  1  0  0  0  0
  7  8  1  0  0  0  0
  7 10  1  0  0  0  0
  8  9  3  0  0  0  0
 10 11  2  0  0  0  0
 10 12  1  0  0  0  0
 12 21  1  0  0  0  0
 12 13  1  0  0  0  0
 13 14  1  0  0  0  0
 13 29  1  0  0  0  0
 13 30  1  0  0  0  0
 14 15  1  0  0  0  0
 14 31  1  0  0  0  0
 14 32  1  0  0  0  0
 15 20  2  0  0  0  0
 15 16  1  0  0  0  0
 16 17  2  0  0  0  0
 16 33  1  0  0  0  0
 17 18  1  0  0  0  0
 17 34  1  0  0  0  0
 18 19  2  0  0  0  0
 18 35  1  0  0  0  0
 19 20  1  0  0  0  0
 19 36  1  0  0  0  0
 20 21  1  0  0  0  0
 21 37  1  0  0  0  0
 21 38  1  0  0  0  0
M  END
$$$$
