ZINC000000052708      none
 OpenBabel11202420153D

 32 35  0  0  0  0  0  0  0  0999 V2000
   29.7487   36.2412   59.9146 O   0  0  0  0  0  0  0  0  0  0  0  0
   30.9442   36.1096   60.0897 C   0  0  0  0  0  0  0  0  0  0  0  0
   31.8314   35.8456   58.9446 C   0  0  0  0  0  0  0  0  0  0  0  0
   32.1028   34.5430   58.5426 C   0  0  0  0  0  0  0  0  0  0  0  0
   32.9438   34.2973   57.4662 C   0  0  0  0  0  0  0  0  0  0  0  0
   33.5262   35.3081   56.7643 C   0  0  0  0  0  0  0  0  0  0  0  0
   33.2921   36.6493   57.1110 C   0  0  0  0  0  0  0  0  0  0  0  0
   33.8865   37.7036   56.3963 C   0  0  0  0  0  0  0  0  0  0  0  0
   33.6360   38.9908   56.7628 C   0  0  0  0  0  0  0  0  0  0  0  0
   32.7983   39.2807   57.8372 C   0  0  0  0  0  0  0  0  0  0  0  0
   32.2053   38.2828   58.5521 C   0  0  0  0  0  0  0  0  0  0  0  0
   32.4407   36.9479   58.2029 C   0  0  0  0  0  0  0  0  0  0  0  0
   31.4578   36.2054   61.3321 N   0  0  0  0  0  0  0  0  0  0  0  0
   32.6010   35.5552   61.8198 N   0  0  0  0  0  0  0  0  0  0  0  0
   32.7904   35.8839   63.0490 N   0  0  0  0  0  0  0  0  0  0  0  0
   31.8272   36.7438   63.4594 C   0  0  0  0  0  0  0  0  0  0  0  0
   31.5766   37.3899   64.6762 C   0  0  0  0  0  0  0  0  0  0  0  0
   30.5015   38.2218   64.7966 C   0  0  0  0  0  0  0  0  0  0  0  0
   29.6478   38.4377   63.7232 C   0  0  0  0  0  0  0  0  0  0  0  0
   29.8735   37.8135   62.5158 C   0  0  0  0  0  0  0  0  0  0  0  0
   30.9656   36.9671   62.3723 C   0  0  0  0  0  0  0  0  0  0  0  0
   31.6591   33.7148   59.0753 H   0  0  0  0  0  0  0  0  0  0  0  0
   33.1419   33.2757   57.1776 H   0  0  0  0  0  0  0  0  0  0  0  0
   34.1752   35.0766   55.9326 H   0  0  0  0  0  0  0  0  0  0  0  0
   34.5383   37.4940   55.5610 H   0  0  0  0  0  0  0  0  0  0  0  0
   34.0941   39.7992   56.2124 H   0  0  0  0  0  0  0  0  0  0  0  0
   32.6156   40.3103   58.1073 H   0  0  0  0  0  0  0  0  0  0  0  0
   31.5575   38.5209   59.3828 H   0  0  0  0  0  0  0  0  0  0  0  0
   32.2336   37.2302   65.5184 H   0  0  0  0  0  0  0  0  0  0  0  0
   30.3125   38.7174   65.7375 H   0  0  0  0  0  0  0  0  0  0  0  0
   28.8013   39.0990   63.8353 H   0  0  0  0  0  0  0  0  0  0  0  0
   29.2065   37.9844   61.6839 H   0  0  0  0  0  0  0  0  0  0  0  0
  1  2  2  0  0  0  0
  2  3  1  0  0  0  0
  2 13  1  0  0  0  0
  3 12  2  0  0  0  0
  3  4  1  0  0  0  0
  4  5  2  0  0  0  0
  4 22  1  0  0  0  0
  5  6  1  0  0  0  0
  5 23  1  0  0  0  0
  6  7  2  0  0  0  0
  6 24  1  0  0  0  0
  7 12  1  0  0  0  0
  7  8  1  0  0  0  0
  8  9  2  0  0  0  0
  8 25  1  0  0  0  0
  9 10  1  0  0  0  0
  9 26  1  0  0  0  0
 10 11  2  0  0  0  0
 10 27  1  0  0  0  0
 11 12  1  0  0  0  0
 11 28  1  0  0  0  0
 13 21  1  0  0  0  0
 13 14  1  0  0  0  0
 14 15  2  0  0  0  0
 15 16  1  0  0  0  0
 16 21  2  0  0  0  0
 16 17  1  0  0  0  0
 17 18  2  0  0  0  0
 17 29  1  0  0  0  0
 18 19  1  0  0  0  0
 18 30  1  0  0  0  0
 19 20  2  0  0  0  0
 19 31  1  0  0  0  0
 20 21  1  0  0  0  0
 20 32  1  0  0  0  0
M  END
$$$$
