ZINC000000003014      none
 OpenBabel11202420153D

 32 33  0  0  0  0  0  0  0  0999 V2000
   30.3109   37.7735   59.7014 O   0  0  0  0  0  0  0  0  0  0  0  0
   31.0894   38.2575   60.4958 C   0  0  0  0  0  0  0  0  0  0  0  0
   30.6349   38.5781   61.8963 C   0  0  0  0  0  0  0  0  0  0  0  0
   30.8511   37.4442   62.7388 O   0  0  0  0  0  0  0  0  0  0  0  0
   31.6787   37.6156   63.8042 C   0  0  0  0  0  0  0  0  0  0  0  0
   32.8282   36.8508   63.9207 C   0  0  0  0  0  0  0  0  0  0  0  0
   33.6683   37.0261   65.0044 C   0  0  0  0  0  0  0  0  0  0  0  0
   33.3644   37.9638   65.9739 C   0  0  0  0  0  0  0  0  0  0  0  0
   32.2191   38.7301   65.8638 C   0  0  0  0  0  0  0  0  0  0  0  0
   31.3757   38.5633   64.7771 C   0  0  0  0  0  0  0  0  0  0  0  0
   30.2515   39.3202   64.6644 O   0  0  0  0  0  0  0  0  0  0  0  0
   32.3610   38.5082   60.1259 N   0  0  0  0  0  0  0  0  0  0  0  0
   32.7836   38.2100   58.8238 C   0  0  0  0  0  0  0  0  0  0  0  0
   33.2654   39.2178   58.0012 C   0  0  0  0  0  0  0  0  0  0  0  0
   33.6824   38.9209   56.7165 C   0  0  0  0  0  0  0  0  0  0  0  0
   34.2851   40.1829   55.6881 Cl  0  0  0  0  0  0  0  0  0  0  0  0
   33.6198   37.6200   56.2490 C   0  0  0  0  0  0  0  0  0  0  0  0
   33.1460   36.6103   57.0658 C   0  0  0  0  0  0  0  0  0  0  0  0
   32.7215   36.9009   58.3521 C   0  0  0  0  0  0  0  0  0  0  0  0
   32.2505   35.9091   59.1546 O   0  0  0  0  0  0  0  0  0  0  0  0
   31.2025   39.4272   62.2772 H   0  0  0  0  0  0  0  0  0  0  0  0
   29.5734   38.8259   61.8860 H   0  0  0  0  0  0  0  0  0  0  0  0
   33.0678   36.1173   63.1649 H   0  0  0  0  0  0  0  0  0  0  0  0
   34.5638   36.4292   65.0941 H   0  0  0  0  0  0  0  0  0  0  0  0
   34.0231   38.0976   66.8193 H   0  0  0  0  0  0  0  0  0  0  0  0
   31.9840   39.4619   66.6225 H   0  0  0  0  0  0  0  0  0  0  0  0
   29.7257   39.1287   63.8758 H   0  0  0  0  0  0  0  0  0  0  0  0
   32.9835   38.8952   60.7613 H   0  0  0  0  0  0  0  0  0  0  0  0
   33.3146   40.2339   58.3638 H   0  0  0  0  0  0  0  0  0  0  0  0
   33.9460   37.3922   55.2449 H   0  0  0  0  0  0  0  0  0  0  0  0
   33.1026   35.5953   56.6994 H   0  0  0  0  0  0  0  0  0  0  0  0
   32.2459   35.0358   58.7392 H   0  0  0  0  0  0  0  0  0  0  0  0
  1  2  2  0  0  0  0
  2  3  1  0  0  0  0
  2 12  1  0  0  0  0
  3  4  1  0  0  0  0
  3 21  1  0  0  0  0
  3 22  1  0  0  0  0
  4  5  1  0  0  0  0
  5 10  2  0  0  0  0
  5  6  1  0  0  0  0
  6  7  2  0  0  0  0
  6 23  1  0  0  0  0
  7  8  1  0  0  0  0
  7 24  1  0  0  0  0
  8  9  2  0  0  0  0
  8 25  1  0  0  0  0
  9 10  1  0  0  0  0
  9 26  1  0  0  0  0
 10 11  1  0  0  0  0
 11 27  1  0  0  0  0
 12 13  1  0  0  0  0
 12 28  1  0  0  0  0
 13 19  2  0  0  0  0
 13 14  1  0  0  0  0
 14 15  2  0  0  0  0
 14 29  1  0  0  0  0
 15 16  1  0  0  0  0
 15 17  1  0  0  0  0
 17 18  2  0  0  0  0
 17 30  1  0  0  0  0
 18 19  1  0  0  0  0
 18 31  1  0  0  0  0
 19 20  1  0  0  0  0
 20 32  1  0  0  0  0
M  END
$$$$
