ZINC000000002330      none
 OpenBabel11202420153D

 38 40  0  0  1  0  0  0  0  0999 V2000
   30.6144   37.8171   59.5749 C   0  0  0  0  0  0  0  0  0  0  0  0
   31.5784   36.7672   59.6765 O   0  0  0  0  0  0  0  0  0  0  0  0
   32.1967   36.3836   58.5280 C   0  0  0  0  0  0  0  0  0  0  0  0
   32.0786   35.1326   58.1096 C   0  0  0  0  0  0  0  0  0  0  0  0
   31.2374   34.2024   58.9452 C   0  0  0  0  0  0  0  0  0  0  0  0
   32.7106   34.5638   56.8761 C   0  0  1  0  0  0  0  0  0  0  0  0
   33.8541   33.6322   57.2829 C   0  0  0  0  0  0  0  0  0  0  0  0
   31.7318   33.8150   56.1527 O   0  0  0  0  0  0  0  0  0  0  0  0
   33.2534   35.6530   55.9888 C   0  0  0  0  0  0  0  0  0  0  0  0
   33.6759   35.5589   54.7109 N   0  0  0  0  0  0  0  0  0  0  0  0
   33.6744   34.7424   54.1874 H   0  0  0  0  0  0  0  0  0  0  0  0
   34.1109   36.7896   54.2505 C   0  0  0  0  0  0  0  0  0  0  0  0
   34.6303   37.2139   53.0327 C   0  0  0  0  0  0  0  0  0  0  0  0
   34.9824   38.5331   52.8530 C   0  0  0  0  0  0  0  0  0  0  0  0
   34.8331   39.4509   53.8883 C   0  0  0  0  0  0  0  0  0  0  0  0
   35.1901   40.7493   53.6998 O   0  0  0  0  0  0  0  0  0  0  0  0
   35.7102   41.0991   52.4156 C   0  0  0  0  0  0  0  0  0  0  0  0
   34.3180   39.0483   55.1054 C   0  0  0  0  0  0  0  0  0  0  0  0
   33.9525   37.7172   55.2973 C   0  0  0  0  0  0  0  0  0  0  0  0
   33.3911   36.9548   56.4093 C   0  0  0  0  0  0  0  0  0  0  0  0
   32.9952   37.3733   57.7612 C   0  0  0  0  0  0  0  0  0  0  0  0
   33.3013   38.4579   58.2215 O   0  0  0  0  0  0  0  0  0  0  0  0
   31.0736   38.6879   59.1070 H   0  0  0  0  0  0  0  0  0  0  0  0
   29.7731   37.4805   58.9689 H   0  0  0  0  0  0  0  0  0  0  0  0
   30.2611   38.0835   60.5709 H   0  0  0  0  0  0  0  0  0  0  0  0
   31.8792   33.6502   59.6317 H   0  0  0  0  0  0  0  0  0  0  0  0
   30.5106   34.7822   59.5143 H   0  0  0  0  0  0  0  0  0  0  0  0
   30.7142   33.5022   58.2942 H   0  0  0  0  0  0  0  0  0  0  0  0
   34.6115   34.2008   57.8224 H   0  0  0  0  0  0  0  0  0  0  0  0
   33.4672   32.8413   57.9256 H   0  0  0  0  0  0  0  0  0  0  0  0
   34.2980   33.1908   56.3906 H   0  0  0  0  0  0  0  0  0  0  0  0
   32.0724   33.3923   55.3525 H   0  0  0  0  0  0  0  0  0  0  0  0
   34.7544   36.5082   52.2246 H   0  0  0  0  0  0  0  0  0  0  0  0
   35.3809   38.8570   51.9028 H   0  0  0  0  0  0  0  0  0  0  0  0
   34.9631   40.8868   51.6509 H   0  0  0  0  0  0  0  0  0  0  0  0
   36.6095   40.5162   52.2166 H   0  0  0  0  0  0  0  0  0  0  0  0
   35.9548   42.1612   52.3997 H   0  0  0  0  0  0  0  0  0  0  0  0
   34.1992   39.7631   55.9062 H   0  0  0  0  0  0  0  0  0  0  0  0
  1  2  1  0  0  0  0
  1 23  1  0  0  0  0
  1 24  1  0  0  0  0
  1 25  1  0  0  0  0
  2  3  1  0  0  0  0
  3 21  1  0  0  0  0
  3  4  2  0  0  0  0
  4  5  1  0  0  0  0
  4  6  1  0  0  0  0
  5 26  1  0  0  0  0
  5 27  1  0  0  0  0
  5 28  1  0  0  0  0
  6  7  1  0  0  0  0
  6  8  1  6  0  0  0
  6  9  1  0  0  0  0
  7 29  1  0  0  0  0
  7 30  1  0  0  0  0
  7 31  1  0  0  0  0
  8 32  1  0  0  0  0
  9 20  2  0  0  0  0
  9 10  1  0  0  0  0
 10 11  1  0  0  0  0
 10 12  1  0  0  0  0
 12 19  2  0  0  0  0
 12 13  1  0  0  0  0
 13 14  2  0  0  0  0
 13 33  1  0  0  0  0
 14 15  1  0  0  0  0
 14 34  1  0  0  0  0
 15 16  1  0  0  0  0
 15 18  2  0  0  0  0
 16 17  1  0  0  0  0
 17 35  1  0  0  0  0
 17 36  1  0  0  0  0
 17 37  1  0  0  0  0
 18 19  1  0  0  0  0
 18 38  1  0  0  0  0
 19 20  1  0  0  0  0
 20 21  1  0  0  0  0
 21 22  2  0  0  0  0
M  END
$$$$
