ZINC000000035709      none
 OpenBabel11202420153D

 35 37  0  0  1  0  0  0  0  0999 V2000
   32.3656   33.4426   59.8778 N   0  0  0  0  0  0  0  0  0  0  0  0
   32.5259   34.2647   59.1105 C   0  0  0  0  0  0  0  0  0  0  0  0
   32.7280   35.3010   58.1430 C   0  0  0  0  0  0  0  0  0  0  0  0
   32.6123   36.6307   58.4331 C   0  0  0  0  0  0  0  0  0  0  0  0
   32.2882   37.1402   59.6829 N   0  0  0  0  0  0  0  0  0  0  0  0
   31.1158   36.8121   60.2610 C   0  0  0  0  0  0  0  0  0  0  0  0
   30.3438   36.0718   59.6892 O   0  0  0  0  0  0  0  0  0  0  0  0
   30.7640   37.3654   61.6180 C   0  0  2  0  0  0  0  0  0  0  0  0
   30.7375   38.4543   61.5776 H   0  0  0  0  0  0  0  0  0  0  0  0
   31.8068   36.9032   62.6583 C   0  0  0  0  0  0  0  0  0  0  0  0
   30.9242   36.6116   63.9025 C   0  0  0  0  0  0  0  0  0  0  0  0
   29.6323   36.0837   63.2295 C   0  0  0  0  0  0  0  0  0  0  0  0
   29.4879   36.8631   62.0316 O   0  0  0  0  0  0  0  0  0  0  0  0
   32.9197   37.5778   57.0522 S   0  0  0  0  0  0  0  0  0  0  0  0
   33.2136   36.1678   56.0477 C   0  0  0  0  0  0  0  0  0  0  0  0
   33.0819   35.0418   56.7599 C   0  0  0  0  0  0  0  0  0  0  0  0
   33.2668   33.6515   56.1732 C   0  0  0  0  0  0  0  0  0  0  0  0
   33.1989   33.7461   54.6472 C   0  0  0  0  0  0  0  0  0  0  0  0
   34.1465   34.8502   54.1690 C   0  0  0  0  0  0  0  0  0  0  0  0
   33.5735   36.2108   54.5751 C   0  0  0  0  0  0  0  0  0  0  0  0
   32.9057   37.7323   60.1401 H   0  0  0  0  0  0  0  0  0  0  0  0
   32.3151   35.9991   62.3228 H   0  0  0  0  0  0  0  0  0  0  0  0
   32.5234   37.6971   62.8685 H   0  0  0  0  0  0  0  0  0  0  0  0
   30.7285   37.5229   64.4676 H   0  0  0  0  0  0  0  0  0  0  0  0
   31.3768   35.8490   64.5362 H   0  0  0  0  0  0  0  0  0  0  0  0
   28.7748   36.2354   63.8851 H   0  0  0  0  0  0  0  0  0  0  0  0
   29.7386   35.0272   62.9829 H   0  0  0  0  0  0  0  0  0  0  0  0
   32.4774   32.9919   56.5338 H   0  0  0  0  0  0  0  0  0  0  0  0
   34.2378   33.2564   56.4720 H   0  0  0  0  0  0  0  0  0  0  0  0
   32.1797   33.9833   54.3420 H   0  0  0  0  0  0  0  0  0  0  0  0
   33.4981   32.7941   54.2087 H   0  0  0  0  0  0  0  0  0  0  0  0
   34.2421   34.8041   53.0841 H   0  0  0  0  0  0  0  0  0  0  0  0
   35.1261   34.7156   54.6273 H   0  0  0  0  0  0  0  0  0  0  0  0
   32.6804   36.4217   53.9866 H   0  0  0  0  0  0  0  0  0  0  0  0
   34.3169   36.9891   54.4031 H   0  0  0  0  0  0  0  0  0  0  0  0
  1  2  3  0  0  0  0
  2  3  1  0  0  0  0
  3 16  1  0  0  0  0
  3  4  2  0  0  0  0
  4  5  1  0  0  0  0
  4 14  1  0  0  0  0
  5  6  1  0  0  0  0
  5 21  1  0  0  0  0
  6  7  2  0  0  0  0
  6  8  1  0  0  0  0
  8  9  1  6  0  0  0
  8 13  1  0  0  0  0
  8 10  1  0  0  0  0
 10 11  1  0  0  0  0
 10 22  1  0  0  0  0
 10 23  1  0  0  0  0
 11 12  1  0  0  0  0
 11 24  1  0  0  0  0
 11 25  1  0  0  0  0
 12 13  1  0  0  0  0
 12 26  1  0  0  0  0
 12 27  1  0  0  0  0
 14 15  1  0  0  0  0
 15 20  1  0  0  0  0
 15 16  2  0  0  0  0
 16 17  1  0  0  0  0
 17 18  1  0  0  0  0
 17 28  1  0  0  0  0
 17 29  1  0  0  0  0
 18 19  1  0  0  0  0
 18 30  1  0  0  0  0
 18 31  1  0  0  0  0
 19 20  1  0  0  0  0
 19 32  1  0  0  0  0
 19 33  1  0  0  0  0
 20 34  1  0  0  0  0
 20 35  1  0  0  0  0
M  END
$$$$
