ZINC000000005988      none
 OpenBabel11202420153D

 38 43  0  0  0  0  0  0  0  0999 V2000
   35.0407   41.1177   53.6553 O   0  0  0  0  0  0  0  0  0  0  0  0
   34.8876   39.9133   53.6091 C   0  0  0  0  0  0  0  0  0  0  0  0
   35.1579   39.1459   52.5407 O   0  0  0  0  0  0  0  0  0  0  0  0
   34.8524   37.7607   52.8572 C   0  0  0  0  0  0  0  0  0  0  0  0
   34.3605   37.7472   54.2837 C   0  0  0  0  0  0  0  0  0  0  0  0
   34.3942   39.0833   54.7235 C   0  0  0  0  0  0  0  0  0  0  0  0
   34.0017   39.4034   56.0156 C   0  0  0  0  0  0  0  0  0  0  0  0
   33.5647   38.3939   56.8852 C   0  0  0  0  0  0  0  0  0  0  0  0
   33.1614   38.6970   58.1990 C   0  0  0  0  0  0  0  0  0  0  0  0
   32.7386   37.6988   59.0273 C   0  0  0  0  0  0  0  0  0  0  0  0
   32.7002   36.3663   58.5821 C   0  0  0  0  0  0  0  0  0  0  0  0
   33.0869   36.0448   57.3112 C   0  0  0  0  0  0  0  0  0  0  0  0
   33.5258   37.0489   56.4391 C   0  0  0  0  0  0  0  0  0  0  0  0
   33.9312   36.7394   55.1161 C   0  0  0  0  0  0  0  0  0  0  0  0
   33.8985   35.3385   54.6351 C   0  0  0  0  0  0  0  0  0  0  0  0
   32.7521   34.8380   54.0182 C   0  0  0  0  0  0  0  0  0  0  0  0
   32.7247   33.5350   53.5663 C   0  0  0  0  0  0  0  0  0  0  0  0
   33.8318   32.7158   53.7313 C   0  0  0  0  0  0  0  0  0  0  0  0
   34.9805   33.2106   54.3471 C   0  0  0  0  0  0  0  0  0  0  0  0
   35.0141   34.5177   54.7977 C   0  0  0  0  0  0  0  0  0  0  0  0
   35.9182   32.2189   54.3822 O   0  0  0  0  0  0  0  0  0  0  0  0
   35.1930   30.9964   54.1530 C   0  0  0  0  0  0  0  0  0  0  0  0
   34.0517   31.4146   53.3815 O   0  0  0  0  0  0  0  0  0  0  0  0
   32.2419   35.5839   59.6028 O   0  0  0  0  0  0  0  0  0  0  0  0
   31.6120   36.4880   60.5287 C   0  0  0  0  0  0  0  0  0  0  0  0
   32.3033   37.7334   60.3216 O   0  0  0  0  0  0  0  0  0  0  0  0
   35.7502   37.1494   52.7655 H   0  0  0  0  0  0  0  0  0  0  0  0
   34.0757   37.3864   52.1902 H   0  0  0  0  0  0  0  0  0  0  0  0
   34.0327   40.4294   56.3512 H   0  0  0  0  0  0  0  0  0  0  0  0
   33.1877   39.7176   58.5512 H   0  0  0  0  0  0  0  0  0  0  0  0
   33.0543   35.0174   56.9799 H   0  0  0  0  0  0  0  0  0  0  0  0
   31.8868   35.4718   53.8915 H   0  0  0  0  0  0  0  0  0  0  0  0
   31.8377   33.1508   53.0845 H   0  0  0  0  0  0  0  0  0  0  0  0
   35.9032   34.9023   55.2754 H   0  0  0  0  0  0  0  0  0  0  0  0
   34.8757   30.5563   55.0984 H   0  0  0  0  0  0  0  0  0  0  0  0
   35.8008   30.2911   53.5860 H   0  0  0  0  0  0  0  0  0  0  0  0
   30.5524   36.5958   60.2971 H   0  0  0  0  0  0  0  0  0  0  0  0
   31.7471   36.1415   61.5533 H   0  0  0  0  0  0  0  0  0  0  0  0
  1  2  2  0  0  0  0
  2  6  1  0  0  0  0
  2  3  1  0  0  0  0
  3  4  1  0  0  0  0
  4  5  1  0  0  0  0
  4 27  1  0  0  0  0
  4 28  1  0  0  0  0
  5 14  2  0  0  0  0
  5  6  1  0  0  0  0
  6  7  2  0  0  0  0
  7  8  1  0  0  0  0
  7 29  1  0  0  0  0
  8 13  2  0  0  0  0
  8  9  1  0  0  0  0
  9 10  2  0  0  0  0
  9 30  1  0  0  0  0
 10 26  1  0  0  0  0
 10 11  1  0  0  0  0
 11 12  2  0  0  0  0
 11 24  1  0  0  0  0
 12 13  1  0  0  0  0
 12 31  1  0  0  0  0
 13 14  1  0  0  0  0
 14 15  1  0  0  0  0
 15 20  2  0  0  0  0
 15 16  1  0  0  0  0
 16 17  2  0  0  0  0
 16 32  1  0  0  0  0
 17 18  1  0  0  0  0
 17 33  1  0  0  0  0
 18 23  1  0  0  0  0
 18 19  2  0  0  0  0
 19 20  1  0  0  0  0
 19 21  1  0  0  0  0
 20 34  1  0  0  0  0
 21 22  1  0  0  0  0
 22 23  1  0  0  0  0
 22 35  1  0  0  0  0
 22 36  1  0  0  0  0
 24 25  1  0  0  0  0
 25 26  1  0  0  0  0
 25 37  1  0  0  0  0
 25 38  1  0  0  0  0
M  END
$$$$
