ZINC000000029764      none
 OpenBabel11202420163D

 35 36  0  0  0  0  0  0  0  0999 V2000
   31.6412   35.9065   58.7092 O   0  0  0  0  0  0  0  0  0  0  0  0
   32.2311   36.9419   58.9496 C   0  0  0  0  0  0  0  0  0  0  0  0
   32.3083   37.3950   60.2165 N   0  0  0  0  0  0  0  0  0  0  0  0
   31.6817   36.6395   61.3041 C   0  0  0  0  0  0  0  0  0  0  0  0
   30.2206   37.1040   61.4562 C   0  0  0  0  0  0  0  0  0  0  0  0
   29.6048   36.7052   62.8110 C   0  0  0  0  0  0  0  0  0  0  0  0
   29.9762   35.3064   63.2228 C   0  0  0  0  0  0  0  0  0  0  0  0
   31.2194   35.3774   64.1331 C   0  0  0  0  0  0  0  0  0  0  0  0
   32.4530   35.5312   63.3765 C   0  0  0  0  0  0  0  0  0  0  0  0
   32.4835   36.8404   62.5614 C   0  0  0  0  0  0  0  0  0  0  0  0
   32.8630   37.7037   57.8530 C   0  0  0  0  0  0  0  0  0  0  0  0
   33.0348   39.0849   57.9674 C   0  0  0  0  0  0  0  0  0  0  0  0
   33.6299   39.7900   56.9433 C   0  0  0  0  0  0  0  0  0  0  0  0
   34.0481   39.1320   55.7968 C   0  0  0  0  0  0  0  0  0  0  0  0
   34.6261   39.8286   54.7938 F   0  0  0  0  0  0  0  0  0  0  0  0
   33.8746   37.7616   55.6756 C   0  0  0  0  0  0  0  0  0  0  0  0
   33.2856   37.0460   56.6957 C   0  0  0  0  0  0  0  0  0  0  0  0
   32.7790   38.2211   60.4084 H   0  0  0  0  0  0  0  0  0  0  0  0
   31.6886   35.5803   61.0468 H   0  0  0  0  0  0  0  0  0  0  0  0
   30.1847   38.1891   61.3595 H   0  0  0  0  0  0  0  0  0  0  0  0
   29.6258   36.6607   60.6574 H   0  0  0  0  0  0  0  0  0  0  0  0
   28.5195   36.7752   62.7394 H   0  0  0  0  0  0  0  0  0  0  0  0
   29.9516   37.4014   63.5746 H   0  0  0  0  0  0  0  0  0  0  0  0
   30.2039   34.7123   62.3377 H   0  0  0  0  0  0  0  0  0  0  0  0
   29.1484   34.8533   63.7683 H   0  0  0  0  0  0  0  0  0  0  0  0
   31.1128   36.2247   64.8105 H   0  0  0  0  0  0  0  0  0  0  0  0
   31.2792   34.4614   64.7209 H   0  0  0  0  0  0  0  0  0  0  0  0
   33.2947   35.5268   64.0690 H   0  0  0  0  0  0  0  0  0  0  0  0
   32.5549   34.6888   62.6924 H   0  0  0  0  0  0  0  0  0  0  0  0
   32.0467   37.6478   63.1492 H   0  0  0  0  0  0  0  0  0  0  0  0
   33.5136   37.0890   62.3064 H   0  0  0  0  0  0  0  0  0  0  0  0
   32.7053   39.5990   58.8581 H   0  0  0  0  0  0  0  0  0  0  0  0
   33.7670   40.8575   57.0326 H   0  0  0  0  0  0  0  0  0  0  0  0
   34.2016   37.2542   54.7800 H   0  0  0  0  0  0  0  0  0  0  0  0
   33.1507   35.9788   56.6001 H   0  0  0  0  0  0  0  0  0  0  0  0
  1  2  2  0  0  0  0
  2  3  1  0  0  0  0
  2 11  1  0  0  0  0
  3  4  1  0  0  0  0
  3 18  1  0  0  0  0
  4 10  1  0  0  0  0
  4  5  1  0  0  0  0
  4 19  1  0  0  0  0
  5  6  1  0  0  0  0
  5 20  1  0  0  0  0
  5 21  1  0  0  0  0
  6  7  1  0  0  0  0
  6 22  1  0  0  0  0
  6 23  1  0  0  0  0
  7  8  1  0  0  0  0
  7 24  1  0  0  0  0
  7 25  1  0  0  0  0
  8  9  1  0  0  0  0
  8 26  1  0  0  0  0
  8 27  1  0  0  0  0
  9 10  1  0  0  0  0
  9 28  1  0  0  0  0
  9 29  1  0  0  0  0
 10 30  1  0  0  0  0
 10 31  1  0  0  0  0
 11 17  2  0  0  0  0
 11 12  1  0  0  0  0
 12 13  2  0  0  0  0
 12 32  1  0  0  0  0
 13 14  1  0  0  0  0
 13 33  1  0  0  0  0
 14 15  1  0  0  0  0
 14 16  2  0  0  0  0
 16 17  1  0  0  0  0
 16 34  1  0  0  0  0
 17 35  1  0  0  0  0
M  END
$$$$
