ZINC000000051514      none
 OpenBabel11202420153D

 27 27  0  0  0  0  0  0  0  0999 V2000
   29.0931   36.5191   62.3948 C   0  0  0  0  0  0  0  0  0  0  0  0
   29.7964   36.3582   61.0456 C   0  0  0  0  0  0  0  0  0  0  0  0
   31.5786   36.1869   61.3109 S   0  0  0  0  0  0  0  0  0  0  0  0
   32.1219   36.0226   59.6428 C   0  0  0  0  0  0  0  0  0  0  0  0
   32.2498   34.8959   58.9757 N   0  0  0  0  0  0  0  0  0  0  0  0
   32.6831   35.1515   57.7354 C   0  0  0  0  0  0  0  0  0  0  0  0
   32.9269   34.1920   56.7513 N   0  0  0  0  0  0  0  0  0  0  0  0
   33.3632   34.5712   55.5338 C   0  0  0  0  0  0  0  0  0  0  0  0
   33.6267   33.5353   54.4715 C   0  0  0  0  0  0  0  0  0  0  0  0
   33.5440   35.7461   55.2933 O   0  0  0  0  0  0  0  0  0  0  0  0
   32.8469   36.4436   57.5917 N   0  0  0  0  0  0  0  0  0  0  0  0
   32.4917   37.0417   58.8117 N   0  0  0  0  0  0  0  0  0  0  0  0
   32.5116   38.3572   59.1038 C   0  0  0  0  0  0  0  0  0  0  0  0
   32.9501   39.3539   58.0620 C   0  0  0  0  0  0  0  0  0  0  0  0
   32.1768   38.7388   60.2046 O   0  0  0  0  0  0  0  0  0  0  0  0
   29.2857   35.6414   63.0119 H   0  0  0  0  0  0  0  0  0  0  0  0
   29.4724   37.4079   62.8987 H   0  0  0  0  0  0  0  0  0  0  0  0
   28.0197   36.6221   62.2350 H   0  0  0  0  0  0  0  0  0  0  0  0
   29.6037   37.2359   60.4285 H   0  0  0  0  0  0  0  0  0  0  0  0
   29.4170   35.4693   60.5417 H   0  0  0  0  0  0  0  0  0  0  0  0
   32.7823   33.2524   56.9438 H   0  0  0  0  0  0  0  0  0  0  0  0
   32.7180   33.3690   53.8930 H   0  0  0  0  0  0  0  0  0  0  0  0
   34.4192   33.8860   53.8105 H   0  0  0  0  0  0  0  0  0  0  0  0
   33.9333   32.6015   54.9428 H   0  0  0  0  0  0  0  0  0  0  0  0
   32.0849   39.6812   57.4855 H   0  0  0  0  0  0  0  0  0  0  0  0
   33.4070   40.2141   58.5515 H   0  0  0  0  0  0  0  0  0  0  0  0
   33.6756   38.8874   57.3955 H   0  0  0  0  0  0  0  0  0  0  0  0
  1  2  1  0  0  0  0
  1 16  1  0  0  0  0
  1 17  1  0  0  0  0
  1 18  1  0  0  0  0
  2  3  1  0  0  0  0
  2 19  1  0  0  0  0
  2 20  1  0  0  0  0
  3  4  1  0  0  0  0
  4 12  1  0  0  0  0
  4  5  2  0  0  0  0
  5  6  1  0  0  0  0
  6  7  1  0  0  0  0
  6 11  2  0  0  0  0
  7  8  1  0  0  0  0
  7 21  1  0  0  0  0
  8  9  1  0  0  0  0
  8 10  2  0  0  0  0
  9 22  1  0  0  0  0
  9 23  1  0  0  0  0
  9 24  1  0  0  0  0
 11 12  1  0  0  0  0
 12 13  1  0  0  0  0
 13 14  1  0  0  0  0
 13 15  2  0  0  0  0
 14 25  1  0  0  0  0
 14 26  1  0  0  0  0
 14 27  1  0  0  0  0
M  END
$$$$
