ZINC000000040709      none
 OpenBabel11202420153D

 33 34  0  0  0  0  0  0  0  0999 V2000
   32.7819   37.6715   58.4425 C   0  0  0  0  0  0  0  0  0  0  0  0
   32.5782   36.1871   58.2803 C   0  0  0  0  0  0  0  0  0  0  0  0
   32.8859   35.5639   57.0810 C   0  0  0  0  0  0  0  0  0  0  0  0
   32.6842   34.1966   56.9735 C   0  0  0  0  0  0  0  0  0  0  0  0
   33.0052   33.4771   55.6889 C   0  0  0  0  0  0  0  0  0  0  0  0
   32.2071   33.5312   58.0121 N   0  0  0  0  0  0  0  0  0  0  0  0
   31.9229   34.1573   59.1454 C   0  0  0  0  0  0  0  0  0  0  0  0
   31.2897   33.2314   60.5042 S   0  0  0  0  0  0  0  0  0  0  0  0
   32.5758   33.5596   61.7349 C   0  0  0  0  0  0  0  0  0  0  0  0
   32.2158   34.7938   62.5210 C   0  0  0  0  0  0  0  0  0  0  0  0
   32.9571   35.7536   62.5160 O   0  0  0  0  0  0  0  0  0  0  0  0
   31.0702   34.8308   63.2299 N   0  0  0  0  0  0  0  0  0  0  0  0
   30.7369   35.9732   63.9579 C   0  0  0  0  0  0  0  0  0  0  0  0
   31.4884   37.1748   64.0501 C   0  0  0  0  0  0  0  0  0  0  0  0
   30.7474   37.9615   64.8631 C   0  0  0  0  0  0  0  0  0  0  0  0
   31.0776   39.3639   65.3051 C   0  0  0  0  0  0  0  0  0  0  0  0
   29.6618   37.2501   65.1996 O   0  0  0  0  0  0  0  0  0  0  0  0
   29.6675   36.1548   64.6873 N   0  0  0  0  0  0  0  0  0  0  0  0
   32.1090   35.4626   59.2823 N   0  0  0  0  0  0  0  0  0  0  0  0
   31.8733   38.1972   58.1488 H   0  0  0  0  0  0  0  0  0  0  0  0
   33.0102   37.8951   59.4846 H   0  0  0  0  0  0  0  0  0  0  0  0
   33.6094   37.9958   57.8115 H   0  0  0  0  0  0  0  0  0  0  0  0
   33.2741   36.1314   56.2480 H   0  0  0  0  0  0  0  0  0  0  0  0
   34.0403   33.1361   55.7123 H   0  0  0  0  0  0  0  0  0  0  0  0
   32.3424   32.6189   55.5777 H   0  0  0  0  0  0  0  0  0  0  0  0
   32.8651   34.1558   54.8475 H   0  0  0  0  0  0  0  0  0  0  0  0
   32.6570   32.7086   62.4112 H   0  0  0  0  0  0  0  0  0  0  0  0
   33.5297   33.7153   61.2308 H   0  0  0  0  0  0  0  0  0  0  0  0
   30.4772   34.0631   63.2340 H   0  0  0  0  0  0  0  0  0  0  0  0
   32.4325   37.4067   63.5796 H   0  0  0  0  0  0  0  0  0  0  0  0
   30.6588   40.0768   64.5949 H   0  0  0  0  0  0  0  0  0  0  0  0
   30.6528   39.5429   66.2929 H   0  0  0  0  0  0  0  0  0  0  0  0
   32.1599   39.4861   65.3474 H   0  0  0  0  0  0  0  0  0  0  0  0
  1  2  1  0  0  0  0
  1 20  1  0  0  0  0
  1 21  1  0  0  0  0
  1 22  1  0  0  0  0
  2 19  2  0  0  0  0
  2  3  1  0  0  0  0
  3  4  2  0  0  0  0
  3 23  1  0  0  0  0
  4  5  1  0  0  0  0
  4  6  1  0  0  0  0
  5 24  1  0  0  0  0
  5 25  1  0  0  0  0
  5 26  1  0  0  0  0
  6  7  2  0  0  0  0
  7  8  1  0  0  0  0
  7 19  1  0  0  0  0
  8  9  1  0  0  0  0
  9 10  1  0  0  0  0
  9 27  1  0  0  0  0
  9 28  1  0  0  0  0
 10 11  2  0  0  0  0
 10 12  1  0  0  0  0
 12 13  1  0  0  0  0
 12 29  1  0  0  0  0
 13 18  2  0  0  0  0
 13 14  1  0  0  0  0
 14 15  2  0  0  0  0
 14 30  1  0  0  0  0
 15 16  1  0  0  0  0
 15 17  1  0  0  0  0
 16 31  1  0  0  0  0
 16 32  1  0  0  0  0
 16 33  1  0  0  0  0
 17 18  1  0  0  0  0
M  END
$$$$
