ZINC000000045922      none
 OpenBabel11202420153D

 28 29  0  0  0  0  0  0  0  0999 V2000
   33.1710   36.3237   52.2891 C   0  0  0  0  0  0  0  0  0  0  0  0
   34.5414   37.2003   53.0915 S   0  0  0  0  0  0  0  0  0  0  0  0
   33.9994   37.3383   54.7624 C   0  0  0  0  0  0  0  0  0  0  0  0
   33.7293   36.1892   55.5023 C   0  0  0  0  0  0  0  0  0  0  0  0
   33.3095   36.2918   56.7980 C   0  0  0  0  0  0  0  0  0  0  0  0
   33.1504   37.5545   57.3825 C   0  0  0  0  0  0  0  0  0  0  0  0
   32.6990   37.6694   58.7756 C   0  0  0  0  0  0  0  0  0  0  0  0
   32.4456   36.5937   59.4706 N   0  0  0  0  0  0  0  0  0  0  0  0
   32.0260   36.7005   60.7664 C   0  0  0  0  0  0  0  0  0  0  0  0
   31.7556   35.5457   61.5055 C   0  0  0  0  0  0  0  0  0  0  0  0
   31.3312   35.6713   62.8152 C   0  0  0  0  0  0  0  0  0  0  0  0
   31.1896   36.9462   63.3478 C   0  0  0  0  0  0  0  0  0  0  0  0
   31.4690   38.0466   62.5595 C   0  0  0  0  0  0  0  0  0  0  0  0
   31.8772   37.9021   61.3148 N   0  0  0  0  0  0  0  0  0  0  0  0
   33.4173   38.7075   56.6335 C   0  0  0  0  0  0  0  0  0  0  0  0
   33.8424   38.5962   55.3403 C   0  0  0  0  0  0  0  0  0  0  0  0
   33.4003   36.1801   51.2331 H   0  0  0  0  0  0  0  0  0  0  0  0
   33.0316   35.3534   52.7657 H   0  0  0  0  0  0  0  0  0  0  0  0
   32.2577   36.9106   52.3861 H   0  0  0  0  0  0  0  0  0  0  0  0
   33.8519   35.2158   55.0507 H   0  0  0  0  0  0  0  0  0  0  0  0
   33.1007   35.4005   57.3709 H   0  0  0  0  0  0  0  0  0  0  0  0
   32.5770   38.6438   59.2251 H   0  0  0  0  0  0  0  0  0  0  0  0
   31.8767   34.5693   61.0601 H   0  0  0  0  0  0  0  0  0  0  0  0
   31.1150   34.7970   63.4113 H   0  0  0  0  0  0  0  0  0  0  0  0
   30.8596   37.0767   64.3678 H   0  0  0  0  0  0  0  0  0  0  0  0
   31.3551   39.0387   62.9706 H   0  0  0  0  0  0  0  0  0  0  0  0
   33.2911   39.6831   57.0792 H   0  0  0  0  0  0  0  0  0  0  0  0
   34.0530   39.4847   54.7636 H   0  0  0  0  0  0  0  0  0  0  0  0
  1  2  1  0  0  0  0
  1 17  1  0  0  0  0
  1 18  1  0  0  0  0
  1 19  1  0  0  0  0
  2  3  1  0  0  0  0
  3 16  2  0  0  0  0
  3  4  1  0  0  0  0
  4  5  2  0  0  0  0
  4 20  1  0  0  0  0
  5  6  1  0  0  0  0
  5 21  1  0  0  0  0
  6  7  1  0  0  0  0
  6 15  2  0  0  0  0
  7  8  2  0  0  0  0
  7 22  1  0  0  0  0
  8  9  1  0  0  0  0
  9 14  2  0  0  0  0
  9 10  1  0  0  0  0
 10 11  2  0  0  0  0
 10 23  1  0  0  0  0
 11 12  1  0  0  0  0
 11 24  1  0  0  0  0
 12 13  2  0  0  0  0
 12 25  1  0  0  0  0
 13 14  1  0  0  0  0
 13 26  1  0  0  0  0
 15 16  1  0  0  0  0
 15 27  1  0  0  0  0
 16 28  1  0  0  0  0
M  END
$$$$
