ZINC000000055497      none
 OpenBabel11202420153D

 25 28  0  0  0  0  0  0  0  0999 V2000
   34.8555   37.7084   53.2476 C   0  0  0  0  0  0  0  0  0  0  0  0
   34.2855   36.7590   54.0758 C   0  0  0  0  0  0  0  0  0  0  0  0
   33.8678   37.1092   55.3450 C   0  0  0  0  0  0  0  0  0  0  0  0
   34.0202   38.4163   55.7885 C   0  0  0  0  0  0  0  0  0  0  0  0
   33.5971   38.7748   57.0747 N   0  0  0  0  0  0  0  0  0  0  0  0
   33.6921   40.0506   57.6444 N   0  0  0  0  0  0  0  0  0  0  0  0
   33.2029   40.0242   58.8544 C   0  0  0  0  0  0  0  0  0  0  0  0
   32.7631   38.7173   59.1298 C   0  0  0  0  0  0  0  0  0  0  0  0
   33.0216   37.9408   57.9896 C   0  0  0  0  0  0  0  0  0  0  0  0
   32.6938   36.6407   57.9868 N   0  0  0  0  0  0  0  0  0  0  0  0
   32.1384   36.0594   59.0095 C   0  0  0  0  0  0  0  0  0  0  0  0
   31.8478   36.7228   60.1596 N   0  0  0  0  0  0  0  0  0  0  0  0
   31.2697   36.3691   61.3850 N   0  0  0  0  0  0  0  0  0  0  0  0
   31.2489   37.4343   62.1134 N   0  0  0  0  0  0  0  0  0  0  0  0
   31.7548   38.4317   61.4774 N   0  0  0  0  0  0  0  0  0  0  0  0
   32.1395   38.0584   60.2757 C   0  0  0  0  0  0  0  0  0  0  0  0
   34.5877   39.3686   54.9520 C   0  0  0  0  0  0  0  0  0  0  0  0
   35.0087   39.0107   53.6863 C   0  0  0  0  0  0  0  0  0  0  0  0
   35.1819   37.4319   52.2559 H   0  0  0  0  0  0  0  0  0  0  0  0
   34.1674   35.7427   53.7304 H   0  0  0  0  0  0  0  0  0  0  0  0
   33.4233   36.3673   55.9917 H   0  0  0  0  0  0  0  0  0  0  0  0
   33.1493   40.8638   59.5317 H   0  0  0  0  0  0  0  0  0  0  0  0
   31.8993   35.0084   58.9424 H   0  0  0  0  0  0  0  0  0  0  0  0
   34.7036   40.3869   55.2926 H   0  0  0  0  0  0  0  0  0  0  0  0
   35.4542   39.7499   53.0370 H   0  0  0  0  0  0  0  0  0  0  0  0
  1 18  2  0  0  0  0
  1  2  1  0  0  0  0
  1 19  1  0  0  0  0
  2  3  2  0  0  0  0
  2 20  1  0  0  0  0
  3  4  1  0  0  0  0
  3 21  1  0  0  0  0
  4  5  1  0  0  0  0
  4 17  2  0  0  0  0
  5  9  1  0  0  0  0
  5  6  1  0  0  0  0
  6  7  2  0  0  0  0
  7  8  1  0  0  0  0
  7 22  1  0  0  0  0
  8 16  1  0  0  0  0
  8  9  2  0  0  0  0
  9 10  1  0  0  0  0
 10 11  2  0  0  0  0
 11 12  1  0  0  0  0
 11 23  1  0  0  0  0
 12 16  1  0  0  0  0
 12 13  1  0  0  0  0
 13 14  2  0  0  0  0
 14 15  1  0  0  0  0
 15 16  2  0  0  0  0
 17 18  1  0  0  0  0
 17 24  1  0  0  0  0
 18 25  1  0  0  0  0
M  END
$$$$
