ZINC000000041800      none
 OpenBabel11202420153D

 33 34  0  0  0  0  0  0  0  0999 V2000
   32.4950   33.9847   60.1556 C   0  0  0  0  0  0  0  0  0  0  0  0
   31.6659   34.5858   59.1589 O   0  0  0  0  0  0  0  0  0  0  0  0
   32.1371   35.7093   58.5613 C   0  0  0  0  0  0  0  0  0  0  0  0
   32.9076   35.6159   57.4104 C   0  0  0  0  0  0  0  0  0  0  0  0
   33.2695   34.0589   56.7334 Cl  0  0  0  0  0  0  0  0  0  0  0  0
   33.3869   36.7605   56.8036 C   0  0  0  0  0  0  0  0  0  0  0  0
   33.1036   38.0082   57.3375 C   0  0  0  0  0  0  0  0  0  0  0  0
   33.7137   39.4378   56.5646 Cl  0  0  0  0  0  0  0  0  0  0  0  0
   32.3346   38.1186   58.4766 C   0  0  0  0  0  0  0  0  0  0  0  0
   31.8485   36.9683   59.1035 C   0  0  0  0  0  0  0  0  0  0  0  0
   31.0306   37.0794   60.3265 C   0  0  0  0  0  0  0  0  0  0  0  0
   29.8942   36.6471   60.3393 O   0  0  0  0  0  0  0  0  0  0  0  0
   31.5432   37.6602   61.4295 N   0  0  0  0  0  0  0  0  0  0  0  0
   30.7311   37.7704   62.6438 C   0  0  0  0  0  0  0  0  0  0  0  0
   31.6292   37.7364   63.8534 C   0  0  0  0  0  0  0  0  0  0  0  0
   31.2631   38.4076   65.0051 C   0  0  0  0  0  0  0  0  0  0  0  0
   32.0868   38.3758   66.1149 C   0  0  0  0  0  0  0  0  0  0  0  0
   33.2766   37.6740   66.0729 C   0  0  0  0  0  0  0  0  0  0  0  0
   33.6428   37.0028   64.9209 C   0  0  0  0  0  0  0  0  0  0  0  0
   32.8187   37.0337   63.8114 C   0  0  0  0  0  0  0  0  0  0  0  0
   32.6662   34.6963   60.9634 H   0  0  0  0  0  0  0  0  0  0  0  0
   32.0016   33.0972   60.5518 H   0  0  0  0  0  0  0  0  0  0  0  0
   33.4497   33.7020   59.7120 H   0  0  0  0  0  0  0  0  0  0  0  0
   33.9859   36.6829   55.9082 H   0  0  0  0  0  0  0  0  0  0  0  0
   32.1120   39.0928   58.8864 H   0  0  0  0  0  0  0  0  0  0  0  0
   32.4497   38.0052   61.4192 H   0  0  0  0  0  0  0  0  0  0  0  0
   30.0294   36.9376   62.6886 H   0  0  0  0  0  0  0  0  0  0  0  0
   30.1790   38.7102   62.6275 H   0  0  0  0  0  0  0  0  0  0  0  0
   30.3358   38.9603   65.0366 H   0  0  0  0  0  0  0  0  0  0  0  0
   31.8009   38.9004   67.0147 H   0  0  0  0  0  0  0  0  0  0  0  0
   33.9204   37.6495   66.9395 H   0  0  0  0  0  0  0  0  0  0  0  0
   34.5722   36.4537   64.8881 H   0  0  0  0  0  0  0  0  0  0  0  0
   33.1047   36.5091   62.9118 H   0  0  0  0  0  0  0  0  0  0  0  0
  1  2  1  0  0  0  0
  1 21  1  0  0  0  0
  1 22  1  0  0  0  0
  1 23  1  0  0  0  0
  2  3  1  0  0  0  0
  3 10  2  0  0  0  0
  3  4  1  0  0  0  0
  4  5  1  0  0  0  0
  4  6  2  0  0  0  0
  6  7  1  0  0  0  0
  6 24  1  0  0  0  0
  7  8  1  0  0  0  0
  7  9  2  0  0  0  0
  9 10  1  0  0  0  0
  9 25  1  0  0  0  0
 10 11  1  0  0  0  0
 11 12  2  0  0  0  0
 11 13  1  0  0  0  0
 13 14  1  0  0  0  0
 13 26  1  0  0  0  0
 14 15  1  0  0  0  0
 14 27  1  0  0  0  0
 14 28  1  0  0  0  0
 15 20  2  0  0  0  0
 15 16  1  0  0  0  0
 16 17  2  0  0  0  0
 16 29  1  0  0  0  0
 17 18  1  0  0  0  0
 17 30  1  0  0  0  0
 18 19  2  0  0  0  0
 18 31  1  0  0  0  0
 19 20  1  0  0  0  0
 19 32  1  0  0  0  0
 20 33  1  0  0  0  0
M  END
$$$$
