ZINC000000037841      none
 OpenBabel11202420153D

 24 26  0  0  0  0  0  0  0  0999 V2000
   32.6991   33.1012   60.6051 C   0  0  0  0  0  0  0  0  0  0  0  0
   31.8268   33.9645   61.4797 C   0  0  0  0  0  0  0  0  0  0  0  0
   31.2443   33.5879   62.5770 N   0  0  0  0  0  0  0  0  0  0  0  0
   30.5228   34.6930   63.0916 O   0  0  0  0  0  0  0  0  0  0  0  0
   30.7193   35.7808   62.2049 N   0  0  0  0  0  0  0  0  0  0  0  0
   31.4993   35.3691   61.2385 C   0  0  0  0  0  0  0  0  0  0  0  0
   31.9678   36.1862   60.0921 C   0  0  0  0  0  0  0  0  0  0  0  0
   32.1851   37.5774   60.0943 C   0  0  0  0  0  0  0  0  0  0  0  0
   32.6182   37.9218   58.8281 C   0  0  0  0  0  0  0  0  0  0  0  0
   32.9843   39.1612   58.2575 C   0  0  0  0  0  0  0  0  0  0  0  0
   33.3724   39.2060   56.9569 C   0  0  0  0  0  0  0  0  0  0  0  0
   33.4047   38.0214   56.1972 C   0  0  0  0  0  0  0  0  0  0  0  0
   33.0543   36.8448   56.7492 C   0  0  0  0  0  0  0  0  0  0  0  0
   32.6584   36.7760   58.0623 N   0  0  0  0  0  0  0  0  0  0  0  0
   32.2637   35.7242   58.8300 C   0  0  0  0  0  0  0  0  0  0  0  0
   32.0832   32.6036   59.8559 H   0  0  0  0  0  0  0  0  0  0  0  0
   33.4440   33.7229   60.1083 H   0  0  0  0  0  0  0  0  0  0  0  0
   33.2009   32.3527   61.2182 H   0  0  0  0  0  0  0  0  0  0  0  0
   32.0428   38.2481   60.9288 H   0  0  0  0  0  0  0  0  0  0  0  0
   32.9562   40.0639   58.8499 H   0  0  0  0  0  0  0  0  0  0  0  0
   33.6556   40.1464   56.5074 H   0  0  0  0  0  0  0  0  0  0  0  0
   33.7137   38.0567   55.1630 H   0  0  0  0  0  0  0  0  0  0  0  0
   33.0848   35.9449   56.1527 H   0  0  0  0  0  0  0  0  0  0  0  0
   32.1943   34.6973   58.5031 H   0  0  0  0  0  0  0  0  0  0  0  0
  1  2  1  0  0  0  0
  1 16  1  0  0  0  0
  1 17  1  0  0  0  0
  1 18  1  0  0  0  0
  2  6  1  0  0  0  0
  2  3  2  0  0  0  0
  3  4  1  0  0  0  0
  4  5  1  0  0  0  0
  5  6  2  0  0  0  0
  6  7  1  0  0  0  0
  7 15  2  0  0  0  0
  7  8  1  0  0  0  0
  8  9  2  0  0  0  0
  8 19  1  0  0  0  0
  9 14  1  0  0  0  0
  9 10  1  0  0  0  0
 10 11  2  0  0  0  0
 10 20  1  0  0  0  0
 11 12  1  0  0  0  0
 11 21  1  0  0  0  0
 12 13  2  0  0  0  0
 12 22  1  0  0  0  0
 13 14  1  0  0  0  0
 13 23  1  0  0  0  0
 14 15  1  0  0  0  0
 15 24  1  0  0  0  0
M  END
$$$$
