ZINC000000052490      none
 OpenBabel11202420153D

 41 44  0  0  0  0  0  0  0  0999 V2000
   33.2164   40.8471   58.9439 N   0  0  0  0  0  0  0  0  0  0  0  0
   33.1473   39.5953   58.3536 C   0  0  0  0  0  0  0  0  0  0  0  0
   33.4963   39.4228   57.0826 N   0  0  0  0  0  0  0  0  0  0  0  0
   33.4340   38.2337   56.5123 C   0  0  0  0  0  0  0  0  0  0  0  0
   33.0280   37.1608   57.1590 N   0  0  0  0  0  0  0  0  0  0  0  0
   32.6592   37.2370   58.4328 C   0  0  0  0  0  0  0  0  0  0  0  0
   32.2012   36.3339   59.3645 N   0  0  0  0  0  0  0  0  0  0  0  0
   32.0572   35.3854   59.2222 H   0  0  0  0  0  0  0  0  0  0  0  0
   31.9860   37.0199   60.5280 C   0  0  0  0  0  0  0  0  0  0  0  0
   31.5229   36.4639   61.7034 N   0  0  0  0  0  0  0  0  0  0  0  0
   30.2092   37.0135   62.0641 C   0  0  0  0  0  0  0  0  0  0  0  0
   29.6507   36.2457   63.2669 C   0  0  0  0  0  0  0  0  0  0  0  0
   30.6524   36.2712   64.3436 N   0  0  0  0  0  0  0  0  0  0  0  0
   30.3177   36.6572   65.5908 C   0  0  0  0  0  0  0  0  0  0  0  0
   29.1752   36.9903   65.8378 O   0  0  0  0  0  0  0  0  0  0  0  0
   31.3403   36.6755   66.6583 C   0  0  0  0  0  0  0  0  0  0  0  0
   31.5490   35.5441   67.4486 C   0  0  0  0  0  0  0  0  0  0  0  0
   32.5085   35.5661   68.4397 C   0  0  0  0  0  0  0  0  0  0  0  0
   33.2554   36.7101   68.6581 C   0  0  0  0  0  0  0  0  0  0  0  0
   33.0497   37.8368   67.8821 C   0  0  0  0  0  0  0  0  0  0  0  0
   32.0973   37.8262   66.8841 C   0  0  0  0  0  0  0  0  0  0  0  0
   32.0288   35.8639   64.0232 C   0  0  0  0  0  0  0  0  0  0  0  0
   32.4938   36.6467   62.7906 C   0  0  0  0  0  0  0  0  0  0  0  0
   32.2854   38.2837   60.3591 N   0  0  0  0  0  0  0  0  0  0  0  0
   32.7077   38.4801   59.0845 C   0  0  0  0  0  0  0  0  0  0  0  0
   33.5222   41.6101   58.4287 H   0  0  0  0  0  0  0  0  0  0  0  0
   32.9590   40.9605   59.8722 H   0  0  0  0  0  0  0  0  0  0  0  0
   33.7273   38.1373   55.4773 H   0  0  0  0  0  0  0  0  0  0  0  0
   30.3143   38.0673   62.3222 H   0  0  0  0  0  0  0  0  0  0  0  0
   29.5280   36.9117   61.2192 H   0  0  0  0  0  0  0  0  0  0  0  0
   29.4474   35.2139   62.9803 H   0  0  0  0  0  0  0  0  0  0  0  0
   28.7319   36.7212   63.6101 H   0  0  0  0  0  0  0  0  0  0  0  0
   30.9635   34.6520   67.2818 H   0  0  0  0  0  0  0  0  0  0  0  0
   32.6740   34.6899   69.0488 H   0  0  0  0  0  0  0  0  0  0  0  0
   34.0028   36.7233   69.4378 H   0  0  0  0  0  0  0  0  0  0  0  0
   33.6361   38.7266   68.0579 H   0  0  0  0  0  0  0  0  0  0  0  0
   31.9382   38.7062   66.2785 H   0  0  0  0  0  0  0  0  0  0  0  0
   32.0542   34.7954   63.8093 H   0  0  0  0  0  0  0  0  0  0  0  0
   32.6824   36.0870   64.8666 H   0  0  0  0  0  0  0  0  0  0  0  0
   33.4693   36.2789   62.4728 H   0  0  0  0  0  0  0  0  0  0  0  0
   32.5670   37.7057   63.0386 H   0  0  0  0  0  0  0  0  0  0  0  0
  1  2  1  0  0  0  0
  1 26  1  0  0  0  0
  1 27  1  0  0  0  0
  2 25  2  0  0  0  0
  2  3  1  0  0  0  0
  3  4  2  0  0  0  0
  4  5  1  0  0  0  0
  4 28  1  0  0  0  0
  5  6  2  0  0  0  0
  6 25  1  0  0  0  0
  6  7  1  0  0  0  0
  7  8  1  0  0  0  0
  7  9  1  0  0  0  0
  9 10  1  0  0  0  0
  9 24  2  0  0  0  0
 10 23  1  0  0  0  0
 10 11  1  0  0  0  0
 11 12  1  0  0  0  0
 11 29  1  0  0  0  0
 11 30  1  0  0  0  0
 12 13  1  0  0  0  0
 12 31  1  0  0  0  0
 12 32  1  0  0  0  0
 13 14  1  0  0  0  0
 13 22  1  0  0  0  0
 14 15  2  0  0  0  0
 14 16  1  0  0  0  0
 16 21  2  0  0  0  0
 16 17  1  0  0  0  0
 17 18  2  0  0  0  0
 17 33  1  0  0  0  0
 18 19  1  0  0  0  0
 18 34  1  0  0  0  0
 19 20  2  0  0  0  0
 19 35  1  0  0  0  0
 20 21  1  0  0  0  0
 20 36  1  0  0  0  0
 21 37  1  0  0  0  0
 22 23  1  0  0  0  0
 22 38  1  0  0  0  0
 22 39  1  0  0  0  0
 23 40  1  0  0  0  0
 23 41  1  0  0  0  0
 24 25  1  0  0  0  0
M  END
$$$$
