ZINC000000019929      none
 OpenBabel11202420153D

 30 32  0  0  1  0  0  0  0  0999 V2000
   33.2460   36.7415   55.9336 C   0  0  0  0  0  0  0  0  0  0  0  0
   33.2516   35.5235   56.8595 C   0  0  2  0  0  0  0  0  0  0  0  0
   34.2804   35.2311   57.0690 H   0  0  0  0  0  0  0  0  0  0  0  0
   32.5680   34.4402   56.2258 O   0  0  0  0  0  0  0  0  0  0  0  0
   33.3156   33.6028   55.4596 C   0  0  0  0  0  0  0  0  0  0  0  0
   34.3681   32.8979   56.0249 C   0  0  0  0  0  0  0  0  0  0  0  0
   35.1241   32.0438   55.2454 C   0  0  0  0  0  0  0  0  0  0  0  0
   34.8381   31.8988   53.8994 C   0  0  0  0  0  0  0  0  0  0  0  0
   35.7933   30.8296   52.9207 Cl  0  0  0  0  0  0  0  0  0  0  0  0
   33.7920   32.6051   53.3326 C   0  0  0  0  0  0  0  0  0  0  0  0
   33.0307   33.4564   54.1099 C   0  0  0  0  0  0  0  0  0  0  0  0
   32.5554   35.8705   58.1503 C   0  0  0  0  0  0  0  0  0  0  0  0
   32.0414   37.1123   58.3436 C   0  0  0  0  0  0  0  0  0  0  0  0
   31.3954   37.4049   59.5512 C   0  0  0  0  0  0  0  0  0  0  0  0
   31.2973   36.4905   60.4890 N   0  0  0  0  0  0  0  0  0  0  0  0
   31.8054   35.2656   60.3094 C   0  0  0  0  0  0  0  0  0  0  0  0
   31.8385   34.1857   61.0820 N   0  0  0  0  0  0  0  0  0  0  0  0
   32.4640   33.2016   60.4503 C   0  0  0  0  0  0  0  0  0  0  0  0
   32.8482   33.6126   59.2653 N   0  0  0  0  0  0  0  0  0  0  0  0
   32.4376   34.9463   59.1407 N   0  0  0  0  0  0  0  0  0  0  0  0
   33.7496   36.4906   55.0000 H   0  0  0  0  0  0  0  0  0  0  0  0
   32.2170   37.0340   55.7242 H   0  0  0  0  0  0  0  0  0  0  0  0
   33.7673   37.5678   56.4170 H   0  0  0  0  0  0  0  0  0  0  0  0
   34.5939   33.0136   57.0747 H   0  0  0  0  0  0  0  0  0  0  0  0
   35.9412   31.4920   55.6862 H   0  0  0  0  0  0  0  0  0  0  0  0
   33.5707   32.4910   52.2816 H   0  0  0  0  0  0  0  0  0  0  0  0
   32.2145   34.0077   53.6669 H   0  0  0  0  0  0  0  0  0  0  0  0
   32.1266   37.8646   57.5734 H   0  0  0  0  0  0  0  0  0  0  0  0
   30.9797   38.3883   59.7138 H   0  0  0  0  0  0  0  0  0  0  0  0
   32.6318   32.2127   60.8506 H   0  0  0  0  0  0  0  0  0  0  0  0
  1  2  1  0  0  0  0
  1 21  1  0  0  0  0
  1 22  1  0  0  0  0
  1 23  1  0  0  0  0
  2  3  1  1  0  0  0
  2  4  1  0  0  0  0
  2 12  1  0  0  0  0
  4  5  1  0  0  0  0
  5 11  2  0  0  0  0
  5  6  1  0  0  0  0
  6  7  2  0  0  0  0
  6 24  1  0  0  0  0
  7  8  1  0  0  0  0
  7 25  1  0  0  0  0
  8  9  1  0  0  0  0
  8 10  2  0  0  0  0
 10 11  1  0  0  0  0
 10 26  1  0  0  0  0
 11 27  1  0  0  0  0
 12 20  1  0  0  0  0
 12 13  2  0  0  0  0
 13 14  1  0  0  0  0
 13 28  1  0  0  0  0
 14 15  2  0  0  0  0
 14 29  1  0  0  0  0
 15 16  1  0  0  0  0
 16 20  1  0  0  0  0
 16 17  2  0  0  0  0
 17 18  1  0  0  0  0
 18 19  2  0  0  0  0
 18 30  1  0  0  0  0
 19 20  1  0  0  0  0
M  END
$$$$
