ZINC000000045767      none
 OpenBabel11202420153D

 39 41  0  0  0  0  0  0  0  0999 V2000
   32.8288   32.9408   61.8588 C   0  0  0  0  0  0  0  0  0  0  0  0
   32.5149   34.1742   61.0517 C   0  0  0  0  0  0  0  0  0  0  0  0
   32.3380   34.0751   59.6826 C   0  0  0  0  0  0  0  0  0  0  0  0
   32.0442   35.1986   58.9389 C   0  0  0  0  0  0  0  0  0  0  0  0
   31.9372   36.4409   59.5688 C   0  0  0  0  0  0  0  0  0  0  0  0
   31.6295   37.6500   58.7776 C   0  0  0  0  0  0  0  0  0  0  0  0
   30.6287   38.2963   59.0197 O   0  0  0  0  0  0  0  0  0  0  0  0
   32.5377   38.0737   57.6925 C   0  0  0  0  0  0  0  0  0  0  0  0
   33.2194   39.3099   57.6152 C   0  0  0  0  0  0  0  0  0  0  0  0
   33.9485   39.3111   56.4821 C   0  0  0  0  0  0  0  0  0  0  0  0
   33.7377   38.1227   55.8472 N   0  0  0  0  0  0  0  0  0  0  0  0
   34.2878   37.7412   54.6774 C   0  0  0  0  0  0  0  0  0  0  0  0
   35.0485   38.4861   54.0925 O   0  0  0  0  0  0  0  0  0  0  0  0
   33.9661   36.4195   54.1074 C   0  0  0  0  0  0  0  0  0  0  0  0
   33.3664   36.3256   52.8483 C   0  0  0  0  0  0  0  0  0  0  0  0
   33.0685   35.0881   52.3206 C   0  0  0  0  0  0  0  0  0  0  0  0
   33.3626   33.9370   53.0362 C   0  0  0  0  0  0  0  0  0  0  0  0
   33.0679   32.7264   52.5141 F   0  0  0  0  0  0  0  0  0  0  0  0
   33.9528   34.0241   54.2883 C   0  0  0  0  0  0  0  0  0  0  0  0
   34.2601   35.2560   54.8239 C   0  0  0  0  0  0  0  0  0  0  0  0
   32.8538   37.3656   56.6268 N   0  0  0  0  0  0  0  0  0  0  0  0
   32.1170   36.5336   60.9506 C   0  0  0  0  0  0  0  0  0  0  0  0
   31.9970   37.8682   61.6401 C   0  0  0  0  0  0  0  0  0  0  0  0
   32.4043   35.4006   61.6830 C   0  0  0  0  0  0  0  0  0  0  0  0
   31.8999   32.4801   62.1946 H   0  0  0  0  0  0  0  0  0  0  0  0
   33.3825   32.2337   61.2411 H   0  0  0  0  0  0  0  0  0  0  0  0
   33.4314   33.2166   62.7243 H   0  0  0  0  0  0  0  0  0  0  0  0
   32.4257   33.1147   59.1962 H   0  0  0  0  0  0  0  0  0  0  0  0
   31.9020   35.1190   57.8712 H   0  0  0  0  0  0  0  0  0  0  0  0
   33.1684   40.1101   58.3387 H   0  0  0  0  0  0  0  0  0  0  0  0
   34.5848   40.1123   56.1366 H   0  0  0  0  0  0  0  0  0  0  0  0
   33.1373   37.2213   52.2900 H   0  0  0  0  0  0  0  0  0  0  0  0
   32.6049   35.0143   51.3480 H   0  0  0  0  0  0  0  0  0  0  0  0
   34.1758   33.1245   54.8428 H   0  0  0  0  0  0  0  0  0  0  0  0
   34.7231   35.3225   55.7973 H   0  0  0  0  0  0  0  0  0  0  0  0
   30.9466   38.0813   61.8389 H   0  0  0  0  0  0  0  0  0  0  0  0
   32.5468   37.8421   62.5807 H   0  0  0  0  0  0  0  0  0  0  0  0
   32.4105   38.6469   60.9990 H   0  0  0  0  0  0  0  0  0  0  0  0
   32.5435   35.4707   62.7519 H   0  0  0  0  0  0  0  0  0  0  0  0
  1  2  1  0  0  0  0
  1 25  1  0  0  0  0
  1 26  1  0  0  0  0
  1 27  1  0  0  0  0
  2 24  2  0  0  0  0
  2  3  1  0  0  0  0
  3  4  2  0  0  0  0
  3 28  1  0  0  0  0
  4  5  1  0  0  0  0
  4 29  1  0  0  0  0
  5  6  1  0  0  0  0
  5 22  2  0  0  0  0
  6  7  2  0  0  0  0
  6  8  1  0  0  0  0
  8 21  2  0  0  0  0
  8  9  1  0  0  0  0
  9 10  2  0  0  0  0
  9 30  1  0  0  0  0
 10 11  1  0  0  0  0
 10 31  1  0  0  0  0
 11 12  1  0  0  0  0
 11 21  1  0  0  0  0
 12 13  2  0  0  0  0
 12 14  1  0  0  0  0
 14 20  2  0  0  0  0
 14 15  1  0  0  0  0
 15 16  2  0  0  0  0
 15 32  1  0  0  0  0
 16 17  1  0  0  0  0
 16 33  1  0  0  0  0
 17 18  1  0  0  0  0
 17 19  2  0  0  0  0
 19 20  1  0  0  0  0
 19 34  1  0  0  0  0
 20 35  1  0  0  0  0
 22 23  1  0  0  0  0
 22 24  1  0  0  0  0
 23 36  1  0  0  0  0
 23 37  1  0  0  0  0
 23 38  1  0  0  0  0
 24 39  1  0  0  0  0
M  END
$$$$
