ZINC000000028973      none
 OpenBabel11202420163D

 33 35  0  0  0  0  0  0  0  0999 V2000
   32.6495   35.7440   61.8631 O   0  0  0  0  0  0  0  0  0  0  0  0
   31.4706   35.4480   61.8968 C   0  0  0  0  0  0  0  0  0  0  0  0
   30.8069   35.4563   63.0699 N   0  0  0  0  0  0  0  0  0  0  0  0
   31.4748   35.8062   64.2494 C   0  0  0  0  0  0  0  0  0  0  0  0
   32.5411   36.6947   64.2081 C   0  0  0  0  0  0  0  0  0  0  0  0
   33.1947   37.0420   65.3742 C   0  0  0  0  0  0  0  0  0  0  0  0
   32.7922   36.5019   66.5819 C   0  0  0  0  0  0  0  0  0  0  0  0
   31.7343   35.6126   66.6268 C   0  0  0  0  0  0  0  0  0  0  0  0
   31.0755   35.2612   65.4636 C   0  0  0  0  0  0  0  0  0  0  0  0
   29.7467   34.1456   65.5204 Cl  0  0  0  0  0  0  0  0  0  0  0  0
   30.8276   35.1113   60.7612 N   0  0  0  0  0  0  0  0  0  0  0  0
   31.5154   35.1027   59.5453 C   0  0  0  0  0  0  0  0  0  0  0  0
   31.6176   33.9399   58.8139 C   0  0  0  0  0  0  0  0  0  0  0  0
   32.2964   33.9185   57.5991 C   0  0  0  0  0  0  0  0  0  0  0  0
   32.8853   35.0430   57.1056 C   0  0  0  0  0  0  0  0  0  0  0  0
   32.8075   36.2469   57.8240 C   0  0  0  0  0  0  0  0  0  0  0  0
   33.4058   37.4267   57.3415 C   0  0  0  0  0  0  0  0  0  0  0  0
   33.2910   38.5614   58.0926 C   0  0  0  0  0  0  0  0  0  0  0  0
   32.5963   38.5285   59.2999 C   0  0  0  0  0  0  0  0  0  0  0  0
   32.0409   37.4278   59.7459 N   0  0  0  0  0  0  0  0  0  0  0  0
   32.1161   36.2845   59.0595 C   0  0  0  0  0  0  0  0  0  0  0  0
   29.8666   35.2201   63.0968 H   0  0  0  0  0  0  0  0  0  0  0  0
   32.8559   37.1174   63.2655 H   0  0  0  0  0  0  0  0  0  0  0  0
   34.0216   37.7360   65.3427 H   0  0  0  0  0  0  0  0  0  0  0  0
   33.3054   36.7750   67.4921 H   0  0  0  0  0  0  0  0  0  0  0  0
   31.4223   35.1926   67.5715 H   0  0  0  0  0  0  0  0  0  0  0  0
   29.8872   34.8750   60.7881 H   0  0  0  0  0  0  0  0  0  0  0  0
   31.1622   33.0341   59.1860 H   0  0  0  0  0  0  0  0  0  0  0  0
   32.3604   32.9958   57.0415 H   0  0  0  0  0  0  0  0  0  0  0  0
   33.4109   35.0090   56.1628 H   0  0  0  0  0  0  0  0  0  0  0  0
   33.9410   37.4338   56.4035 H   0  0  0  0  0  0  0  0  0  0  0  0
   33.7386   39.4831   57.7515 H   0  0  0  0  0  0  0  0  0  0  0  0
   32.5136   39.4331   59.8840 H   0  0  0  0  0  0  0  0  0  0  0  0
  1  2  2  0  0  0  0
  2  3  1  0  0  0  0
  2 11  1  0  0  0  0
  3  4  1  0  0  0  0
  3 22  1  0  0  0  0
  4  9  2  0  0  0  0
  4  5  1  0  0  0  0
  5  6  2  0  0  0  0
  5 23  1  0  0  0  0
  6  7  1  0  0  0  0
  6 24  1  0  0  0  0
  7  8  2  0  0  0  0
  7 25  1  0  0  0  0
  8  9  1  0  0  0  0
  8 26  1  0  0  0  0
  9 10  1  0  0  0  0
 11 12  1  0  0  0  0
 11 27  1  0  0  0  0
 12 21  2  0  0  0  0
 12 13  1  0  0  0  0
 13 14  2  0  0  0  0
 13 28  1  0  0  0  0
 14 15  1  0  0  0  0
 14 29  1  0  0  0  0
 15 16  2  0  0  0  0
 15 30  1  0  0  0  0
 16 21  1  0  0  0  0
 16 17  1  0  0  0  0
 17 18  2  0  0  0  0
 17 31  1  0  0  0  0
 18 19  1  0  0  0  0
 18 32  1  0  0  0  0
 19 20  2  0  0  0  0
 19 33  1  0  0  0  0
 20 21  1  0  0  0  0
M  END
$$$$
