ZINC000000008641      none
 OpenBabel11202420153D

 35 35  0  0  1  0  0  0  0  0999 V2000
   29.2906   32.3952   64.7511 C   0  0  0  0  0  0  0  0  0  0  0  0
   29.0940   32.3502   66.2678 C   0  0  0  0  0  0  0  0  0  0  0  0
   29.5687   30.9981   66.8037 C   0  0  0  0  0  0  0  0  0  0  0  0
   29.8710   33.4234   66.8929 N   0  0  0  0  0  0  0  0  0  0  0  0
   29.5692   35.0028   66.4970 S   0  0  0  0  0  0  0  0  0  0  0  0
   29.9862   35.7366   67.6402 O   0  0  0  0  0  0  0  0  0  0  0  0
   28.2108   35.0061   66.0797 O   0  0  0  0  0  0  0  0  0  0  0  0
   30.6674   35.3349   65.0920 C   0  0  0  0  0  0  0  0  0  0  0  0
   30.1557   36.5537   64.3216 C   0  0  1  0  0  0  0  0  0  0  0  0
   29.0678   36.5169   64.2644 H   0  0  0  0  0  0  0  0  0  0  0  0
   30.5853   37.8315   65.0450 C   0  0  0  0  0  0  0  0  0  0  0  0
   30.7324   36.5466   62.9293 C   0  0  0  0  0  0  0  0  0  0  0  0
   31.9342   37.1809   62.6757 C   0  0  0  0  0  0  0  0  0  0  0  0
   32.4633   37.1739   61.3987 C   0  0  0  0  0  0  0  0  0  0  0  0
   31.7910   36.5323   60.3754 C   0  0  0  0  0  0  0  0  0  0  0  0
   30.5895   35.8976   60.6291 C   0  0  0  0  0  0  0  0  0  0  0  0
   30.0593   35.9062   61.9058 C   0  0  0  0  0  0  0  0  0  0  0  0
   30.3470   32.2625   64.5176 H   0  0  0  0  0  0  0  0  0  0  0  0
   28.7125   31.5968   64.2860 H   0  0  0  0  0  0  0  0  0  0  0  0
   28.9524   33.3585   64.3693 H   0  0  0  0  0  0  0  0  0  0  0  0
   28.0376   32.4829   66.5013 H   0  0  0  0  0  0  0  0  0  0  0  0
   30.6251   30.8653   66.5702 H   0  0  0  0  0  0  0  0  0  0  0  0
   29.4286   30.9660   67.8841 H   0  0  0  0  0  0  0  0  0  0  0  0
   28.9907   30.1996   66.3385 H   0  0  0  0  0  0  0  0  0  0  0  0
   30.5622   33.2089   67.5387 H   0  0  0  0  0  0  0  0  0  0  0  0
   30.6844   34.4682   64.4312 H   0  0  0  0  0  0  0  0  0  0  0  0
   31.6751   35.5328   65.4574 H   0  0  0  0  0  0  0  0  0  0  0  0
   31.6732   37.8685   65.1022 H   0  0  0  0  0  0  0  0  0  0  0  0
   30.2207   38.6999   64.4962 H   0  0  0  0  0  0  0  0  0  0  0  0
   30.1681   37.8368   66.0519 H   0  0  0  0  0  0  0  0  0  0  0  0
   32.4599   37.6815   63.4754 H   0  0  0  0  0  0  0  0  0  0  0  0
   33.4023   37.6693   61.2005 H   0  0  0  0  0  0  0  0  0  0  0  0
   32.2022   36.5306   59.3767 H   0  0  0  0  0  0  0  0  0  0  0  0
   30.0639   35.3966   59.8296 H   0  0  0  0  0  0  0  0  0  0  0  0
   29.1202   35.4109   62.1038 H   0  0  0  0  0  0  0  0  0  0  0  0
  1  2  1  0  0  0  0
  1 18  1  0  0  0  0
  1 19  1  0  0  0  0
  1 20  1  0  0  0  0
  2  3  1  0  0  0  0
  2  4  1  0  0  0  0
  2 21  1  0  0  0  0
  3 22  1  0  0  0  0
  3 23  1  0  0  0  0
  3 24  1  0  0  0  0
  4  5  1  0  0  0  0
  4 25  1  0  0  0  0
  5  6  2  0  0  0  0
  5  7  2  0  0  0  0
  5  8  1  0  0  0  0
  8  9  1  0  0  0  0
  8 26  1  0  0  0  0
  8 27  1  0  0  0  0
  9 10  1  6  0  0  0
  9 11  1  0  0  0  0
  9 12  1  0  0  0  0
 11 28  1  0  0  0  0
 11 29  1  0  0  0  0
 11 30  1  0  0  0  0
 12 17  2  0  0  0  0
 12 13  1  0  0  0  0
 13 14  2  0  0  0  0
 13 31  1  0  0  0  0
 14 15  1  0  0  0  0
 14 32  1  0  0  0  0
 15 16  2  0  0  0  0
 15 33  1  0  0  0  0
 16 17  1  0  0  0  0
 16 34  1  0  0  0  0
 17 35  1  0  0  0  0
M  END
$$$$
