ZINC000000031423      none
 OpenBabel11202420163D

 41 42  0  0  1  0  0  0  0  0999 V2000
   30.3899   35.6003   69.4314 C   0  0  0  0  0  0  0  0  0  0  0  0
   31.3084   35.5186   68.2105 C   0  0  0  0  0  0  0  0  0  0  0  0
   30.6560   36.1072   67.0835 O   0  0  0  0  0  0  0  0  0  0  0  0
   30.8493   37.4278   66.8846 C   0  0  0  0  0  0  0  0  0  0  0  0
   31.5531   38.0616   67.6484 O   0  0  0  0  0  0  0  0  0  0  0  0
   30.2336   38.0754   65.7880 C   0  0  0  0  0  0  0  0  0  0  0  0
   30.4877   37.6911   64.5193 C   0  0  0  0  0  0  0  0  0  0  0  0
   31.4427   36.5531   64.2662 C   0  0  0  0  0  0  0  0  0  0  0  0
   29.8936   38.3173   63.4611 N   0  0  0  0  0  0  0  0  0  0  0  0
   30.2158   37.8491   62.1108 C   0  0  0  0  0  0  0  0  0  0  0  0
   29.2314   36.7509   61.7034 C   0  0  0  0  0  0  0  0  0  0  0  0
   29.0328   39.3350   63.5883 C   0  0  0  0  0  0  0  0  0  0  0  0
   28.5537   39.8287   62.5861 O   0  0  0  0  0  0  0  0  0  0  0  0
   28.6798   39.8295   64.7913 N   0  0  0  0  0  0  0  0  0  0  0  0
   29.2663   39.2227   65.9981 C   0  0  2  0  0  0  0  0  0  0  0  0
   28.4498   38.8634   66.6244 H   0  0  0  0  0  0  0  0  0  0  0  0
   29.9878   40.3054   66.7586 C   0  0  0  0  0  0  0  0  0  0  0  0
   31.3531   40.4627   66.6092 C   0  0  0  0  0  0  0  0  0  0  0  0
   32.0148   41.4560   67.3064 C   0  0  0  0  0  0  0  0  0  0  0  0
   31.3115   42.2928   68.1536 C   0  0  0  0  0  0  0  0  0  0  0  0
   29.9470   42.1363   68.3035 C   0  0  0  0  0  0  0  0  0  0  0  0
   29.2840   41.1422   67.6059 C   0  0  0  0  0  0  0  0  0  0  0  0
   27.5694   40.9455   67.7934 Cl  0  0  0  0  0  0  0  0  0  0  0  0
   30.9196   35.2318   70.3098 H   0  0  0  0  0  0  0  0  0  0  0  0
   30.0933   36.6364   69.5943 H   0  0  0  0  0  0  0  0  0  0  0  0
   29.5025   34.9909   69.2600 H   0  0  0  0  0  0  0  0  0  0  0  0
   31.5342   34.4743   67.9950 H   0  0  0  0  0  0  0  0  0  0  0  0
   32.2342   36.0558   68.4158 H   0  0  0  0  0  0  0  0  0  0  0  0
   32.3192   36.9253   63.7359 H   0  0  0  0  0  0  0  0  0  0  0  0
   31.7508   36.1191   65.2174 H   0  0  0  0  0  0  0  0  0  0  0  0
   30.9488   35.7917   63.6624 H   0  0  0  0  0  0  0  0  0  0  0  0
   30.1420   38.6812   61.4105 H   0  0  0  0  0  0  0  0  0  0  0  0
   31.2304   37.4512   62.0967 H   0  0  0  0  0  0  0  0  0  0  0  0
   29.4712   36.4026   60.6987 H   0  0  0  0  0  0  0  0  0  0  0  0
   29.3053   35.9189   62.4036 H   0  0  0  0  0  0  0  0  0  0  0  0
   28.2168   37.1488   61.7175 H   0  0  0  0  0  0  0  0  0  0  0  0
   28.0543   40.5678   64.8606 H   0  0  0  0  0  0  0  0  0  0  0  0
   31.9034   39.8067   65.9513 H   0  0  0  0  0  0  0  0  0  0  0  0
   33.0815   41.5783   67.1897 H   0  0  0  0  0  0  0  0  0  0  0  0
   31.8289   43.0689   68.6980 H   0  0  0  0  0  0  0  0  0  0  0  0
   29.3979   42.7901   68.9650 H   0  0  0  0  0  0  0  0  0  0  0  0
  1  2  1  0  0  0  0
  1 24  1  0  0  0  0
  1 25  1  0  0  0  0
  1 26  1  0  0  0  0
  2  3  1  0  0  0  0
  2 27  1  0  0  0  0
  2 28  1  0  0  0  0
  3  4  1  0  0  0  0
  4  5  2  0  0  0  0
  4  6  1  0  0  0  0
  6 15  1  0  0  0  0
  6  7  2  0  0  0  0
  7  8  1  0  0  0  0
  7  9  1  0  0  0  0
  8 29  1  0  0  0  0
  8 30  1  0  0  0  0
  8 31  1  0  0  0  0
  9 10  1  0  0  0  0
  9 12  1  0  0  0  0
 10 11  1  0  0  0  0
 10 32  1  0  0  0  0
 10 33  1  0  0  0  0
 11 34  1  0  0  0  0
 11 35  1  0  0  0  0
 11 36  1  0  0  0  0
 12 13  2  0  0  0  0
 12 14  1  0  0  0  0
 14 15  1  0  0  0  0
 14 37  1  0  0  0  0
 15 16  1  1  0  0  0
 15 17  1  0  0  0  0
 17 22  2  0  0  0  0
 17 18  1  0  0  0  0
 18 19  2  0  0  0  0
 18 38  1  0  0  0  0
 19 20  1  0  0  0  0
 19 39  1  0  0  0  0
 20 21  2  0  0  0  0
 20 40  1  0  0  0  0
 21 22  1  0  0  0  0
 21 41  1  0  0  0  0
 22 23  1  0  0  0  0
M  END
$$$$
