ZINC000000047777      none
 OpenBabel11202420153D

 33 36  0  0  1  0  0  0  0  0999 V2000
   28.9265   36.0310   60.8459 O   0  0  0  0  0  0  0  0  0  0  0  0
   29.3141   36.7758   61.7268 C   0  0  0  0  0  0  0  0  0  0  0  0
   28.5468   37.6000   62.4603 N   0  0  0  0  0  0  0  0  0  0  0  0
   29.3054   38.3188   63.3773 C   0  0  0  0  0  0  0  0  0  0  0  0
   28.9503   39.2744   64.3233 C   0  0  0  0  0  0  0  0  0  0  0  0
   29.9162   39.8474   65.1255 C   0  0  0  0  0  0  0  0  0  0  0  0
   31.2458   39.4809   65.0003 C   0  0  0  0  0  0  0  0  0  0  0  0
   31.6173   38.5337   64.0672 C   0  0  0  0  0  0  0  0  0  0  0  0
   30.6514   37.9505   63.2543 C   0  0  0  0  0  0  0  0  0  0  0  0
   30.7097   36.9315   62.1810 C   0  0  0  0  0  0  0  0  0  0  0  0
   31.7716   36.3073   61.7287 N   0  0  0  0  0  0  0  0  0  0  0  0
   31.6658   35.4589   60.6188 N   0  0  0  0  0  0  0  0  0  0  0  0
   31.9460   34.1386   60.5549 C   0  0  0  0  0  0  0  0  0  0  0  0
   32.5099   33.1958   61.8679 S   0  0  0  0  0  0  0  0  0  0  0  0
   31.7215   33.6715   59.3208 N   0  0  0  0  0  0  0  0  0  0  0  0
   31.3175   34.5274   58.5294 N   0  0  0  0  0  0  0  0  0  0  0  0
   31.2235   35.8049   59.2542 C   0  0  2  0  0  0  0  0  0  0  0  0
   32.1421   36.8311   58.6425 C   0  0  0  0  0  0  0  0  0  0  0  0
   32.3129   38.0731   59.2345 C   0  0  0  0  0  0  0  0  0  0  0  0
   33.1676   38.9870   58.6476 C   0  0  0  0  0  0  0  0  0  0  0  0
   33.8079   38.6925   57.5330 N   0  0  0  0  0  0  0  0  0  0  0  0
   33.6654   37.5235   56.9396 C   0  0  0  0  0  0  0  0  0  0  0  0
   32.8321   36.5577   57.4714 C   0  0  0  0  0  0  0  0  0  0  0  0
   27.5859   37.6860   62.3595 H   0  0  0  0  0  0  0  0  0  0  0  0
   27.9167   39.5687   64.4302 H   0  0  0  0  0  0  0  0  0  0  0  0
   29.6324   40.5886   65.8580 H   0  0  0  0  0  0  0  0  0  0  0  0
   31.9927   39.9362   65.6335 H   0  0  0  0  0  0  0  0  0  0  0  0
   32.6539   38.2470   63.9687 H   0  0  0  0  0  0  0  0  0  0  0  0
   30.1951   36.1659   59.2639 H   0  0  0  0  0  0  0  0  0  0  0  0
   31.7879   38.3220   60.1449 H   0  0  0  0  0  0  0  0  0  0  0  0
   33.3093   39.9552   59.1046 H   0  0  0  0  0  0  0  0  0  0  0  0
   34.2063   37.3183   56.0276 H   0  0  0  0  0  0  0  0  0  0  0  0
   32.7195   35.6021   56.9808 H   0  0  0  0  0  0  0  0  0  0  0  0
  1  2  2  0  0  0  0
  2 10  1  0  0  0  0
  2  3  1  0  0  0  0
  3  4  1  0  0  0  0
  3 24  1  0  0  0  0
  4  9  2  0  0  0  0
  4  5  1  0  0  0  0
  5  6  2  0  0  0  0
  5 25  1  0  0  0  0
  6  7  1  0  0  0  0
  6 26  1  0  0  0  0
  7  8  2  0  0  0  0
  7 27  1  0  0  0  0
  8  9  1  0  0  0  0
  8 28  1  0  0  0  0
  9 10  1  0  0  0  0
 10 11  2  0  0  0  0
 11 12  1  0  0  0  0
 12 17  1  0  0  0  0
 12 13  1  0  0  0  0
 13 14  2  0  0  0  0
 13 15  1  0  0  0  0
 15 16  2  0  0  0  0
 16 17  1  0  0  0  0
 17 18  1  0  0  0  0
 17 29  1  1  0  0  0
 18 23  2  0  0  0  0
 18 19  1  0  0  0  0
 19 20  2  0  0  0  0
 19 30  1  0  0  0  0
 20 21  1  0  0  0  0
 20 31  1  0  0  0  0
 21 22  2  0  0  0  0
 22 23  1  0  0  0  0
 22 32  1  0  0  0  0
 23 33  1  0  0  0  0
M  END
$$$$
