ZINC000000032608      none
 OpenBabel11202420153D

 35 36  0  0  1  0  0  0  0  0999 V2000
   29.5665   35.7281   63.8886 C   0  0  0  0  0  0  0  0  0  0  0  0
   29.6473   36.8897   62.8961 C   0  0  0  0  0  0  0  0  0  0  0  0
   29.4134   38.2218   63.6114 C   0  0  0  0  0  0  0  0  0  0  0  0
   28.6834   36.7089   61.8187 O   0  0  0  0  0  0  0  0  0  0  0  0
   29.3304   36.6234   60.6510 C   0  0  0  0  0  0  0  0  0  0  0  0
   28.7621   36.4743   59.5874 O   0  0  0  0  0  0  0  0  0  0  0  0
   30.6628   36.7131   60.7618 N   0  0  0  0  0  0  0  0  0  0  0  0
   31.6164   36.6480   59.6516 C   0  0  0  0  0  0  0  0  0  0  0  0
   31.8650   38.0569   59.1094 C   0  0  2  0  0  0  0  0  0  0  0  0
   30.9357   38.6259   59.0821 H   0  0  0  0  0  0  0  0  0  0  0  0
   32.5080   37.9940   57.7005 C   0  0  0  0  0  0  0  0  0  0  0  0
   33.2338   39.3586   57.6140 C   0  0  0  0  0  0  0  0  0  0  0  0
   33.3964   39.7937   59.0834 C   0  0  0  0  0  0  0  0  0  0  0  0
   32.8578   38.7424   59.9024 O   0  0  0  0  0  0  0  0  0  0  0  0
   31.0114   36.8939   62.1794 C   0  0  2  0  0  0  0  0  0  0  0  0
   31.8804   35.7346   62.6712 C   0  0  0  0  0  0  0  0  0  0  0  0
   31.6816   38.1405   62.3764 O   0  0  0  0  0  0  0  0  0  0  0  0
   30.3567   35.8300   64.6324 H   0  0  0  0  0  0  0  0  0  0  0  0
   28.5963   35.7413   64.3851 H   0  0  0  0  0  0  0  0  0  0  0  0
   29.6889   34.7854   63.3553 H   0  0  0  0  0  0  0  0  0  0  0  0
   29.4280   39.0327   62.8832 H   0  0  0  0  0  0  0  0  0  0  0  0
   28.4452   38.2002   64.1118 H   0  0  0  0  0  0  0  0  0  0  0  0
   30.2001   38.3814   64.3488 H   0  0  0  0  0  0  0  0  0  0  0  0
   31.2090   36.0203   58.8590 H   0  0  0  0  0  0  0  0  0  0  0  0
   32.5562   36.2233   60.0043 H   0  0  0  0  0  0  0  0  0  0  0  0
   31.7439   37.9101   56.9276 H   0  0  0  0  0  0  0  0  0  0  0  0
   33.2189   37.1704   57.6332 H   0  0  0  0  0  0  0  0  0  0  0  0
   32.6262   40.0800   57.0676 H   0  0  0  0  0  0  0  0  0  0  0  0
   34.2085   39.2452   57.1396 H   0  0  0  0  0  0  0  0  0  0  0  0
   34.4523   39.9380   59.3124 H   0  0  0  0  0  0  0  0  0  0  0  0
   32.8472   40.7187   59.2589 H   0  0  0  0  0  0  0  0  0  0  0  0
   32.8093   35.7095   62.1013 H   0  0  0  0  0  0  0  0  0  0  0  0
   32.1066   35.8730   63.7285 H   0  0  0  0  0  0  0  0  0  0  0  0
   31.3446   34.7953   62.5341 H   0  0  0  0  0  0  0  0  0  0  0  0
   31.9144   38.3205   63.2975 H   0  0  0  0  0  0  0  0  0  0  0  0
  1  2  1  0  0  0  0
  1 18  1  0  0  0  0
  1 19  1  0  0  0  0
  1 20  1  0  0  0  0
  2 15  1  0  0  0  0
  2  3  1  0  0  0  0
  2  4  1  0  0  0  0
  3 21  1  0  0  0  0
  3 22  1  0  0  0  0
  3 23  1  0  0  0  0
  4  5  1  0  0  0  0
  5  6  2  0  0  0  0
  5  7  1  0  0  0  0
  7  8  1  0  0  0  0
  7 15  1  0  0  0  0
  8  9  1  0  0  0  0
  8 24  1  0  0  0  0
  8 25  1  0  0  0  0
  9 10  1  6  0  0  0
  9 14  1  0  0  0  0
  9 11  1  0  0  0  0
 11 12  1  0  0  0  0
 11 26  1  0  0  0  0
 11 27  1  0  0  0  0
 12 13  1  0  0  0  0
 12 28  1  0  0  0  0
 12 29  1  0  0  0  0
 13 14  1  0  0  0  0
 13 30  1  0  0  0  0
 13 31  1  0  0  0  0
 15 16  1  0  0  0  0
 15 17  1  1  0  0  0
 16 32  1  0  0  0  0
 16 33  1  0  0  0  0
 16 34  1  0  0  0  0
 17 35  1  0  0  0  0
M  END
$$$$
