ZINC000000041036      none
 OpenBabel11202420153D

 33 35  0  0  1  0  0  0  0  0999 V2000
   32.7550   36.6645   65.6805 C   0  0  0  0  0  0  0  0  0  0  0  0
   32.1071   36.6030   64.3679 N   0  0  0  0  0  0  0  0  0  0  0  0
   32.2867   37.6025   63.3089 C   0  0  0  0  0  0  0  0  0  0  0  0
   31.1174   37.3815   62.3268 C   0  0  1  0  0  0  0  0  0  0  0  0
   29.9312   38.3251   62.5356 C   0  0  0  0  0  0  0  0  0  0  0  0
   31.6476   37.3799   60.9088 C   0  0  0  0  0  0  0  0  0  0  0  0
   31.8493   38.4065   60.0086 C   0  0  0  0  0  0  0  0  0  0  0  0
   32.3372   38.1344   58.7437 C   0  0  0  0  0  0  0  0  0  0  0  0
   32.6182   36.8303   58.3792 C   0  0  0  0  0  0  0  0  0  0  0  0
   32.4265   35.8017   59.2774 C   0  0  0  0  0  0  0  0  0  0  0  0
   31.9383   36.0683   60.5560 C   0  0  0  0  0  0  0  0  0  0  0  0
   31.6754   35.1931   61.6159 N   0  0  0  0  0  0  0  0  0  0  0  0
   31.0685   33.9463   61.1308 C   0  0  0  0  0  0  0  0  0  0  0  0
   30.7823   35.8798   62.5724 C   0  0  2  0  0  0  0  0  0  0  0  0
   29.4017   35.5667   62.3773 O   0  0  0  0  0  0  0  0  0  0  0  0
   31.2598   35.6081   63.9813 C   0  0  0  0  0  0  0  0  0  0  0  0
   30.9301   34.6535   64.6529 O   0  0  0  0  0  0  0  0  0  0  0  0
   32.1185   37.2136   66.3745 H   0  0  0  0  0  0  0  0  0  0  0  0
   32.9134   35.6533   66.0551 H   0  0  0  0  0  0  0  0  0  0  0  0
   33.7149   37.1726   65.5883 H   0  0  0  0  0  0  0  0  0  0  0  0
   33.2389   37.4469   62.8018 H   0  0  0  0  0  0  0  0  0  0  0  0
   32.2418   38.6076   63.7279 H   0  0  0  0  0  0  0  0  0  0  0  0
   29.1177   38.0391   61.8689 H   0  0  0  0  0  0  0  0  0  0  0  0
   29.5931   38.2603   63.5699 H   0  0  0  0  0  0  0  0  0  0  0  0
   30.2377   39.3480   62.3170 H   0  0  0  0  0  0  0  0  0  0  0  0
   31.6262   39.4242   60.2929 H   0  0  0  0  0  0  0  0  0  0  0  0
   32.4942   38.9386   58.0401 H   0  0  0  0  0  0  0  0  0  0  0  0
   32.9925   36.6172   57.3888 H   0  0  0  0  0  0  0  0  0  0  0  0
   32.6520   34.7857   58.9883 H   0  0  0  0  0  0  0  0  0  0  0  0
   31.7508   33.4562   60.4364 H   0  0  0  0  0  0  0  0  0  0  0  0
   30.8725   33.2853   61.9751 H   0  0  0  0  0  0  0  0  0  0  0  0
   30.1318   34.1724   60.6213 H   0  0  0  0  0  0  0  0  0  0  0  0
   29.0680   35.7907   61.4978 H   0  0  0  0  0  0  0  0  0  0  0  0
  1  2  1  0  0  0  0
  1 18  1  0  0  0  0
  1 19  1  0  0  0  0
  1 20  1  0  0  0  0
  2 16  1  0  0  0  0
  2  3  1  0  0  0  0
  3  4  1  0  0  0  0
  3 21  1  0  0  0  0
  3 22  1  0  0  0  0
  4 14  1  0  0  0  0
  4  5  1  1  0  0  0
  4  6  1  0  0  0  0
  5 23  1  0  0  0  0
  5 24  1  0  0  0  0
  5 25  1  0  0  0  0
  6 11  2  0  0  0  0
  6  7  1  0  0  0  0
  7  8  2  0  0  0  0
  7 26  1  0  0  0  0
  8  9  1  0  0  0  0
  8 27  1  0  0  0  0
  9 10  2  0  0  0  0
  9 28  1  0  0  0  0
 10 11  1  0  0  0  0
 10 29  1  0  0  0  0
 11 12  1  0  0  0  0
 12 13  1  0  0  0  0
 12 14  1  0  0  0  0
 13 30  1  0  0  0  0
 13 31  1  0  0  0  0
 13 32  1  0  0  0  0
 14 15  1  6  0  0  0
 14 16  1  0  0  0  0
 15 33  1  0  0  0  0
 16 17  2  0  0  0  0
M  END
$$$$
