ZINC000000002542      none
 OpenBabel11202420153D

 24 26  0  0  0  0  0  0  0  0999 V2000
   33.4479   39.1357   56.6364 C   0  0  0  0  0  0  0  0  0  0  0  0
   33.0415   39.3947   57.9434 C   0  0  0  0  0  0  0  0  0  0  0  0
   32.6710   38.3798   58.7733 C   0  0  0  0  0  0  0  0  0  0  0  0
   32.6996   37.0577   58.3064 C   0  0  0  0  0  0  0  0  0  0  0  0
   32.3268   35.9762   59.1399 C   0  0  0  0  0  0  0  0  0  0  0  0
   32.3599   34.7015   58.6023 C   0  0  0  0  0  0  0  0  0  0  0  0
   32.7739   34.5220   57.2826 C   0  0  0  0  0  0  0  0  0  0  0  0
   33.1264   35.5333   56.5241 N   0  0  0  0  0  0  0  0  0  0  0  0
   33.1051   36.7916   56.9766 C   0  0  0  0  0  0  0  0  0  0  0  0
   33.4860   37.8644   56.1516 C   0  0  0  0  0  0  0  0  0  0  0  0
   32.0015   33.6146   59.3399 O   0  0  0  0  0  0  0  0  0  0  0  0
   31.9055   33.8040   60.7559 C   0  0  0  0  0  0  0  0  0  0  0  0
   31.1459   35.1135   61.0063 C   0  0  0  0  0  0  0  0  0  0  0  0
   31.9263   36.2221   60.4433 N   0  0  0  0  0  0  0  0  0  0  0  0
   33.7377   39.9568   55.9975 H   0  0  0  0  0  0  0  0  0  0  0  0
   33.0202   40.4126   58.3034 H   0  0  0  0  0  0  0  0  0  0  0  0
   32.3569   38.5923   59.7846 H   0  0  0  0  0  0  0  0  0  0  0  0
   32.8056   33.5229   56.8736 H   0  0  0  0  0  0  0  0  0  0  0  0
   33.8032   37.6809   55.1356 H   0  0  0  0  0  0  0  0  0  0  0  0
   31.3625   32.9715   61.2033 H   0  0  0  0  0  0  0  0  0  0  0  0
   32.9040   33.8687   61.1879 H   0  0  0  0  0  0  0  0  0  0  0  0
   30.1706   35.0693   60.5215 H   0  0  0  0  0  0  0  0  0  0  0  0
   31.0152   35.2616   62.0782 H   0  0  0  0  0  0  0  0  0  0  0  0
   32.7229   36.4354   61.0248 H   0  0  0  0  0  0  0  0  0  0  0  0
  1 10  2  0  0  0  0
  1  2  1  0  0  0  0
  1 15  1  0  0  0  0
  2  3  2  0  0  0  0
  2 16  1  0  0  0  0
  3  4  1  0  0  0  0
  3 17  1  0  0  0  0
  4  9  2  0  0  0  0
  4  5  1  0  0  0  0
  5 14  1  0  0  0  0
  5  6  2  0  0  0  0
  6  7  1  0  0  0  0
  6 11  1  0  0  0  0
  7  8  2  0  0  0  0
  7 18  1  0  0  0  0
  8  9  1  0  0  0  0
  9 10  1  0  0  0  0
 10 19  1  0  0  0  0
 11 12  1  0  0  0  0
 12 13  1  0  0  0  0
 12 20  1  0  0  0  0
 12 21  1  0  0  0  0
 13 14  1  0  0  0  0
 13 22  1  0  0  0  0
 13 23  1  0  0  0  0
 14 24  1  0  0  0  0
M  END
$$$$
