ZINC000000034427      none
 OpenBabel11202420153D

 31 32  0  0  1  0  0  0  0  0999 V2000
   31.1091   33.1119   62.4319 C   0  0  0  0  0  0  0  0  0  0  0  0
   31.8337   34.3243   61.8436 C   0  0  1  0  0  0  0  0  0  0  0  0
   32.7534   33.9977   61.3582 H   0  0  0  0  0  0  0  0  0  0  0  0
   30.9899   34.9639   60.8839 O   0  0  0  0  0  0  0  0  0  0  0  0
   31.4867   36.0665   60.2629 C   0  0  0  0  0  0  0  0  0  0  0  0
   31.2820   37.3238   60.8115 C   0  0  0  0  0  0  0  0  0  0  0  0
   31.7831   38.4438   60.1764 C   0  0  0  0  0  0  0  0  0  0  0  0
   32.4987   38.3112   58.9995 C   0  0  0  0  0  0  0  0  0  0  0  0
   33.1327   39.7198   58.2072 Cl  0  0  0  0  0  0  0  0  0  0  0  0
   32.7043   37.0584   58.4499 C   0  0  0  0  0  0  0  0  0  0  0  0
   32.1998   35.9355   59.0793 C   0  0  0  0  0  0  0  0  0  0  0  0
   32.4573   34.3634   58.3895 Cl  0  0  0  0  0  0  0  0  0  0  0  0
   32.1655   35.2954   62.9471 C   0  0  0  0  0  0  0  0  0  0  0  0
   33.3206   35.5917   63.1671 O   0  0  0  0  0  0  0  0  0  0  0  0
   31.1783   35.8346   63.6896 N   0  0  0  0  0  0  0  0  0  0  0  0
   31.4842   36.7299   64.7070 C   0  0  0  0  0  0  0  0  0  0  0  0
   30.5022   37.2501   65.4268 N   0  0  0  0  0  0  0  0  0  0  0  0
   30.7588   38.1015   66.4059 C   0  0  0  0  0  0  0  0  0  0  0  0
   32.0735   38.4552   66.6667 C   0  0  0  0  0  0  0  0  0  0  0  0
   33.0762   37.8957   65.8904 C   0  0  0  0  0  0  0  0  0  0  0  0
   32.7505   37.0465   64.9299 N   0  0  0  0  0  0  0  0  0  0  0  0
   30.8692   32.4095   61.6337 H   0  0  0  0  0  0  0  0  0  0  0  0
   31.7527   32.6240   63.1638 H   0  0  0  0  0  0  0  0  0  0  0  0
   30.1894   33.4384   62.9171 H   0  0  0  0  0  0  0  0  0  0  0  0
   30.7275   37.4278   61.7324 H   0  0  0  0  0  0  0  0  0  0  0  0
   31.6199   39.4232   60.6012 H   0  0  0  0  0  0  0  0  0  0  0  0
   33.2596   36.9573   57.5291 H   0  0  0  0  0  0  0  0  0  0  0  0
   30.2543   35.5977   63.5136 H   0  0  0  0  0  0  0  0  0  0  0  0
   29.9537   38.5192   66.9921 H   0  0  0  0  0  0  0  0  0  0  0  0
   32.3113   39.1511   67.4577 H   0  0  0  0  0  0  0  0  0  0  0  0
   34.1108   38.1497   66.0676 H   0  0  0  0  0  0  0  0  0  0  0  0
  1  2  1  0  0  0  0
  1 22  1  0  0  0  0
  1 23  1  0  0  0  0
  1 24  1  0  0  0  0
  2  3  1  6  0  0  0
  2  4  1  0  0  0  0
  2 13  1  0  0  0  0
  4  5  1  0  0  0  0
  5 11  2  0  0  0  0
  5  6  1  0  0  0  0
  6  7  2  0  0  0  0
  6 25  1  0  0  0  0
  7  8  1  0  0  0  0
  7 26  1  0  0  0  0
  8  9  1  0  0  0  0
  8 10  2  0  0  0  0
 10 11  1  0  0  0  0
 10 27  1  0  0  0  0
 11 12  1  0  0  0  0
 13 14  2  0  0  0  0
 13 15  1  0  0  0  0
 15 16  1  0  0  0  0
 15 28  1  0  0  0  0
 16 21  2  0  0  0  0
 16 17  1  0  0  0  0
 17 18  2  0  0  0  0
 18 19  1  0  0  0  0
 18 29  1  0  0  0  0
 19 20  2  0  0  0  0
 19 30  1  0  0  0  0
 20 21  1  0  0  0  0
 20 31  1  0  0  0  0
M  END
$$$$
