ZINC000000035757      none
 OpenBabel11202420153D

 33 35  0  0  0  0  0  0  0  0999 V2000
   31.6283   34.8776   60.2120 C   0  0  0  0  0  0  0  0  0  0  0  0
   32.2614   35.4963   59.0611 O   0  0  0  0  0  0  0  0  0  0  0  0
   32.2822   36.8447   59.0248 C   0  0  0  0  0  0  0  0  0  0  0  0
   31.7843   37.4853   59.9313 O   0  0  0  0  0  0  0  0  0  0  0  0
   32.9037   37.5368   57.8949 C   0  0  0  0  0  0  0  0  0  0  0  0
   33.0032   38.9291   57.7166 C   0  0  0  0  0  0  0  0  0  0  0  0
   33.6226   39.1650   56.5907 N   0  0  0  0  0  0  0  0  0  0  0  0
   33.9586   37.9527   55.9774 N   0  0  0  0  0  0  0  0  0  0  0  0
   34.6016   37.6685   54.8073 C   0  0  0  0  0  0  0  0  0  0  0  0
   35.0915   38.7816   53.9174 C   0  0  0  0  0  0  0  0  0  0  0  0
   34.7742   40.0152   54.4960 F   0  0  0  0  0  0  0  0  0  0  0  0
   36.4785   38.6809   53.7652 F   0  0  0  0  0  0  0  0  0  0  0  0
   34.4764   38.6821   52.6647 F   0  0  0  0  0  0  0  0  0  0  0  0
   34.7931   36.3751   54.4539 C   0  0  0  0  0  0  0  0  0  0  0  0
   34.3246   35.3518   55.3041 C   0  0  0  0  0  0  0  0  0  0  0  0
   34.5244   33.9312   54.9355 C   0  0  0  0  0  0  0  0  0  0  0  0
   35.2608   33.0886   55.7682 C   0  0  0  0  0  0  0  0  0  0  0  0
   35.4391   31.7649   55.4220 C   0  0  0  0  0  0  0  0  0  0  0  0
   34.8978   31.2756   54.2463 C   0  0  0  0  0  0  0  0  0  0  0  0
   34.1714   32.1077   53.4137 C   0  0  0  0  0  0  0  0  0  0  0  0
   33.9818   33.4319   53.7516 C   0  0  0  0  0  0  0  0  0  0  0  0
   33.7055   35.6637   56.4320 N   0  0  0  0  0  0  0  0  0  0  0  0
   33.5179   36.9360   56.7768 C   0  0  0  0  0  0  0  0  0  0  0  0
   30.5848   35.1880   60.2632 H   0  0  0  0  0  0  0  0  0  0  0  0
   31.6805   33.7931   60.1160 H   0  0  0  0  0  0  0  0  0  0  0  0
   32.1445   35.1871   61.1208 H   0  0  0  0  0  0  0  0  0  0  0  0
   32.6329   39.6790   58.3999 H   0  0  0  0  0  0  0  0  0  0  0  0
   35.2990   36.1300   53.5318 H   0  0  0  0  0  0  0  0  0  0  0  0
   35.6872   33.4706   56.6840 H   0  0  0  0  0  0  0  0  0  0  0  0
   36.0053   31.1104   56.0681 H   0  0  0  0  0  0  0  0  0  0  0  0
   35.0436   30.2397   53.9776 H   0  0  0  0  0  0  0  0  0  0  0  0
   33.7514   31.7198   52.4974 H   0  0  0  0  0  0  0  0  0  0  0  0
   33.4140   34.0805   53.1008 H   0  0  0  0  0  0  0  0  0  0  0  0
  1  2  1  0  0  0  0
  1 24  1  0  0  0  0
  1 25  1  0  0  0  0
  1 26  1  0  0  0  0
  2  3  1  0  0  0  0
  3  4  2  0  0  0  0
  3  5  1  0  0  0  0
  5 23  2  0  0  0  0
  5  6  1  0  0  0  0
  6  7  2  0  0  0  0
  6 27  1  0  0  0  0
  7  8  1  0  0  0  0
  8 23  1  0  0  0  0
  8  9  1  0  0  0  0
  9 10  1  0  0  0  0
  9 14  2  0  0  0  0
 10 11  1  0  0  0  0
 10 12  1  0  0  0  0
 10 13  1  0  0  0  0
 14 15  1  0  0  0  0
 14 28  1  0  0  0  0
 15 16  1  0  0  0  0
 15 22  2  0  0  0  0
 16 21  2  0  0  0  0
 16 17  1  0  0  0  0
 17 18  2  0  0  0  0
 17 29  1  0  0  0  0
 18 19  1  0  0  0  0
 18 30  1  0  0  0  0
 19 20  2  0  0  0  0
 19 31  1  0  0  0  0
 20 21  1  0  0  0  0
 20 32  1  0  0  0  0
 21 33  1  0  0  0  0
 22 23  1  0  0  0  0
M  END
$$$$
