ZINC000000042694      none
 OpenBabel11202420153D

 37 39  0  0  0  0  0  0  0  0999 V2000
   31.1299   36.3262   65.4127 C   0  0  0  0  0  0  0  0  0  0  0  0
   31.2844   36.9288   64.0401 C   0  0  0  0  0  0  0  0  0  0  0  0
   32.4985   36.8453   63.3828 C   0  0  0  0  0  0  0  0  0  0  0  0
   32.6423   37.3912   62.1228 C   0  0  0  0  0  0  0  0  0  0  0  0
   31.5667   38.0303   61.5174 C   0  0  0  0  0  0  0  0  0  0  0  0
   31.7079   38.5827   60.2439 N   0  0  0  0  0  0  0  0  0  0  0  0
   32.0291   37.8305   59.2465 N   0  0  0  0  0  0  0  0  0  0  0  0
   32.7198   38.3295   58.2395 C   0  0  0  0  0  0  0  0  0  0  0  0
   33.0290   37.6814   56.9535 C   0  0  0  0  0  0  0  0  0  0  0  0
   32.6967   36.5639   56.5975 O   0  0  0  0  0  0  0  0  0  0  0  0
   33.7540   38.5741   56.2500 N   0  0  0  0  0  0  0  0  0  0  0  0
   34.2569   38.3586   54.9620 C   0  0  0  0  0  0  0  0  0  0  0  0
   34.9889   39.3528   54.3253 C   0  0  0  0  0  0  0  0  0  0  0  0
   35.4893   39.1347   53.0567 C   0  0  0  0  0  0  0  0  0  0  0  0
   35.2519   37.9327   52.4154 C   0  0  0  0  0  0  0  0  0  0  0  0
   34.5183   36.9431   53.0440 C   0  0  0  0  0  0  0  0  0  0  0  0
   34.0204   37.1524   54.3149 C   0  0  0  0  0  0  0  0  0  0  0  0
   33.9308   39.7429   56.9894 N   0  0  0  0  0  0  0  0  0  0  0  0
   33.3471   39.6627   58.1513 C   0  0  0  0  0  0  0  0  0  0  0  0
   33.3222   40.6521   59.1317 N   0  0  0  0  0  0  0  0  0  0  0  0
   30.3497   38.1173   62.1833 C   0  0  0  0  0  0  0  0  0  0  0  0
   30.2135   37.5689   63.4432 C   0  0  0  0  0  0  0  0  0  0  0  0
   31.3832   37.0711   66.1672 H   0  0  0  0  0  0  0  0  0  0  0  0
   30.0987   36.0026   65.5535 H   0  0  0  0  0  0  0  0  0  0  0  0
   31.7962   35.4691   65.5104 H   0  0  0  0  0  0  0  0  0  0  0  0
   33.3339   36.3486   63.8539 H   0  0  0  0  0  0  0  0  0  0  0  0
   33.5892   37.3213   61.6081 H   0  0  0  0  0  0  0  0  0  0  0  0
   31.5646   39.5325   60.1086 H   0  0  0  0  0  0  0  0  0  0  0  0
   35.1706   40.2936   54.8238 H   0  0  0  0  0  0  0  0  0  0  0  0
   36.0628   39.9053   52.5632 H   0  0  0  0  0  0  0  0  0  0  0  0
   35.6407   37.7662   51.4217 H   0  0  0  0  0  0  0  0  0  0  0  0
   34.3347   36.0056   52.5404 H   0  0  0  0  0  0  0  0  0  0  0  0
   33.4481   36.3790   54.8056 H   0  0  0  0  0  0  0  0  0  0  0  0
   33.1850   40.4106   60.0611 H   0  0  0  0  0  0  0  0  0  0  0  0
   33.4423   41.5825   58.8849 H   0  0  0  0  0  0  0  0  0  0  0  0
   29.5120   38.6134   61.7162 H   0  0  0  0  0  0  0  0  0  0  0  0
   29.2683   37.6358   63.9613 H   0  0  0  0  0  0  0  0  0  0  0  0
  1  2  1  0  0  0  0
  1 23  1  0  0  0  0
  1 24  1  0  0  0  0
  1 25  1  0  0  0  0
  2 22  2  0  0  0  0
  2  3  1  0  0  0  0
  3  4  2  0  0  0  0
  3 26  1  0  0  0  0
  4  5  1  0  0  0  0
  4 27  1  0  0  0  0
  5  6  1  0  0  0  0
  5 21  2  0  0  0  0
  6  7  1  0  0  0  0
  6 28  1  0  0  0  0
  7  8  2  0  0  0  0
  8 19  1  0  0  0  0
  8  9  1  0  0  0  0
  9 10  2  0  0  0  0
  9 11  1  0  0  0  0
 11 12  1  0  0  0  0
 11 18  1  0  0  0  0
 12 17  2  0  0  0  0
 12 13  1  0  0  0  0
 13 14  2  0  0  0  0
 13 29  1  0  0  0  0
 14 15  1  0  0  0  0
 14 30  1  0  0  0  0
 15 16  2  0  0  0  0
 15 31  1  0  0  0  0
 16 17  1  0  0  0  0
 16 32  1  0  0  0  0
 17 33  1  0  0  0  0
 18 19  2  0  0  0  0
 19 20  1  0  0  0  0
 20 34  1  0  0  0  0
 20 35  1  0  0  0  0
 21 22  1  0  0  0  0
 21 36  1  0  0  0  0
 22 37  1  0  0  0  0
M  END
$$$$
