ZINC000000040104      none
 OpenBabel11202420153D

 25 26  0  0  0  0  0  0  0  0999 V2000
   29.1938   39.3913   65.2712 N   0  0  0  0  0  0  0  0  0  0  0  0
   29.4487   38.6045   64.1578 C   0  0  0  0  0  0  0  0  0  0  0  0
   29.2860   37.3150   64.0744 N   0  0  0  0  0  0  0  0  0  0  0  0
   29.5693   36.7596   62.9782 N   0  0  0  0  0  0  0  0  0  0  0  0
   30.0009   37.5058   62.0141 C   0  0  0  0  0  0  0  0  0  0  0  0
   30.3909   37.0370   60.6359 C   0  0  0  0  0  0  0  0  0  0  0  0
   31.8781   36.6782   60.6212 C   0  0  0  0  0  0  0  0  0  0  0  0
   32.2682   36.2095   59.2431 C   0  0  0  0  0  0  0  0  0  0  0  0
   32.1839   34.8681   58.9197 C   0  0  0  0  0  0  0  0  0  0  0  0
   32.5371   34.4387   57.6541 C   0  0  0  0  0  0  0  0  0  0  0  0
   32.9844   35.3494   56.7151 C   0  0  0  0  0  0  0  0  0  0  0  0
   33.0736   36.6899   57.0401 C   0  0  0  0  0  0  0  0  0  0  0  0
   32.7155   37.1201   58.3042 C   0  0  0  0  0  0  0  0  0  0  0  0
   30.0592   39.1692   62.6009 S   0  0  0  0  0  0  0  0  0  0  0  0
   28.8623   38.9846   66.0870 H   0  0  0  0  0  0  0  0  0  0  0  0
   29.3472   40.3484   65.2342 H   0  0  0  0  0  0  0  0  0  0  0  0
   30.2017   37.8321   59.9147 H   0  0  0  0  0  0  0  0  0  0  0  0
   29.8026   36.1586   60.3709 H   0  0  0  0  0  0  0  0  0  0  0  0
   32.4665   37.5567   60.8862 H   0  0  0  0  0  0  0  0  0  0  0  0
   32.0673   35.8832   61.3425 H   0  0  0  0  0  0  0  0  0  0  0  0
   31.8387   34.1561   59.6547 H   0  0  0  0  0  0  0  0  0  0  0  0
   32.4677   33.3913   57.4003 H   0  0  0  0  0  0  0  0  0  0  0  0
   33.2646   35.0133   55.7277 H   0  0  0  0  0  0  0  0  0  0  0  0
   33.4235   37.4013   56.3067 H   0  0  0  0  0  0  0  0  0  0  0  0
   32.7856   38.1674   58.5582 H   0  0  0  0  0  0  0  0  0  0  0  0
  1  2  1  0  0  0  0
  1 15  1  0  0  0  0
  1 16  1  0  0  0  0
  2 14  1  0  0  0  0
  2  3  2  0  0  0  0
  3  4  1  0  0  0  0
  4  5  2  0  0  0  0
  5  6  1  0  0  0  0
  5 14  1  0  0  0  0
  6  7  1  0  0  0  0
  6 17  1  0  0  0  0
  6 18  1  0  0  0  0
  7  8  1  0  0  0  0
  7 19  1  0  0  0  0
  7 20  1  0  0  0  0
  8 13  2  0  0  0  0
  8  9  1  0  0  0  0
  9 10  2  0  0  0  0
  9 21  1  0  0  0  0
 10 11  1  0  0  0  0
 10 22  1  0  0  0  0
 11 12  2  0  0  0  0
 11 23  1  0  0  0  0
 12 13  1  0  0  0  0
 12 24  1  0  0  0  0
 13 25  1  0  0  0  0
M  END
$$$$
