ZINC000000035234      none
 OpenBabel11202420153D

 32 33  0  0  0  0  0  0  0  0999 V2000
   31.8129   36.4354   60.6233 O   0  0  0  0  0  0  0  0  0  0  0  0
   31.9173   37.5696   61.0487 C   0  0  0  0  0  0  0  0  0  0  0  0
   32.4039   38.5447   60.2557 N   0  0  0  0  0  0  0  0  0  0  0  0
   32.7873   38.2531   58.9485 C   0  0  0  0  0  0  0  0  0  0  0  0
   33.2891   39.2638   58.1358 C   0  0  0  0  0  0  0  0  0  0  0  0
   33.6661   38.9604   56.8398 C   0  0  0  0  0  0  0  0  0  0  0  0
   33.5278   37.6510   56.3989 C   0  0  0  0  0  0  0  0  0  0  0  0
   33.0225   36.6976   57.2603 C   0  0  0  0  0  0  0  0  0  0  0  0
   32.6711   37.0162   58.4915 N   0  0  0  0  0  0  0  0  0  0  0  0
   31.5114   37.8785   62.4333 C   0  0  0  0  0  0  0  0  0  0  0  0
   30.1984   38.2721   62.7070 C   0  0  0  0  0  0  0  0  0  0  0  0
   29.8221   38.5558   64.0004 C   0  0  0  0  0  0  0  0  0  0  0  0
   30.7492   38.4598   65.0334 C   0  0  0  0  0  0  0  0  0  0  0  0
   30.3659   38.7525   66.3416 N   0  0  0  0  0  0  0  0  0  0  0  0
   29.3920   39.6552   66.5725 C   0  0  0  0  0  0  0  0  0  0  0  0
   28.8490   40.2127   65.6422 O   0  0  0  0  0  0  0  0  0  0  0  0
   28.9776   39.9718   67.9864 C   0  0  0  0  0  0  0  0  0  0  0  0
   29.7406   39.2098   68.8775 F   0  0  0  0  0  0  0  0  0  0  0  0
   29.1850   41.3319   68.2396 F   0  0  0  0  0  0  0  0  0  0  0  0
   27.6225   39.6676   68.1543 F   0  0  0  0  0  0  0  0  0  0  0  0
   32.0582   38.0729   64.7637 C   0  0  0  0  0  0  0  0  0  0  0  0
   32.4403   37.7836   63.4733 C   0  0  0  0  0  0  0  0  0  0  0  0
   32.4871   39.4496   60.5951 H   0  0  0  0  0  0  0  0  0  0  0  0
   33.3829   40.2722   58.5113 H   0  0  0  0  0  0  0  0  0  0  0  0
   34.0549   39.7256   56.1843 H   0  0  0  0  0  0  0  0  0  0  0  0
   33.8125   37.3813   55.3927 H   0  0  0  0  0  0  0  0  0  0  0  0
   32.9131   35.6778   56.9218 H   0  0  0  0  0  0  0  0  0  0  0  0
   29.4793   38.3504   61.9052 H   0  0  0  0  0  0  0  0  0  0  0  0
   28.8069   38.8571   64.2130 H   0  0  0  0  0  0  0  0  0  0  0  0
   30.8001   38.3068   67.0856 H   0  0  0  0  0  0  0  0  0  0  0  0
   32.7756   37.9997   65.5678 H   0  0  0  0  0  0  0  0  0  0  0  0
   33.4566   37.4839   63.2646 H   0  0  0  0  0  0  0  0  0  0  0  0
  1  2  2  0  0  0  0
  2  3  1  0  0  0  0
  2 10  1  0  0  0  0
  3  4  1  0  0  0  0
  3 23  1  0  0  0  0
  4  9  2  0  0  0  0
  4  5  1  0  0  0  0
  5  6  2  0  0  0  0
  5 24  1  0  0  0  0
  6  7  1  0  0  0  0
  6 25  1  0  0  0  0
  7  8  2  0  0  0  0
  7 26  1  0  0  0  0
  8  9  1  0  0  0  0
  8 27  1  0  0  0  0
 10 22  2  0  0  0  0
 10 11  1  0  0  0  0
 11 12  2  0  0  0  0
 11 28  1  0  0  0  0
 12 13  1  0  0  0  0
 12 29  1  0  0  0  0
 13 14  1  0  0  0  0
 13 21  2  0  0  0  0
 14 15  1  0  0  0  0
 14 30  1  0  0  0  0
 15 16  2  0  0  0  0
 15 17  1  0  0  0  0
 17 18  1  0  0  0  0
 17 19  1  0  0  0  0
 17 20  1  0  0  0  0
 21 22  1  0  0  0  0
 21 31  1  0  0  0  0
 22 32  1  0  0  0  0
M  END
$$$$
