ZINC000000054702      none
 OpenBabel11202420153D

 32 33  0  0  0  0  0  0  0  0999 V2000
   31.2730   36.9973   60.2396 O   0  0  0  0  0  0  0  0  0  0  0  0
   31.6650   37.9417   60.8994 C   0  0  0  0  0  0  0  0  0  0  0  0
   32.4988   38.8474   60.3508 N   0  0  0  0  0  0  0  0  0  0  0  0
   32.9137   38.7016   59.0231 C   0  0  0  0  0  0  0  0  0  0  0  0
   33.2078   39.8237   58.2588 C   0  0  0  0  0  0  0  0  0  0  0  0
   33.6218   39.6766   56.9497 C   0  0  0  0  0  0  0  0  0  0  0  0
   33.7341   38.4132   56.3958 C   0  0  0  0  0  0  0  0  0  0  0  0
   34.2489   38.2323   54.7478 Cl  0  0  0  0  0  0  0  0  0  0  0  0
   33.4362   37.2941   57.1531 C   0  0  0  0  0  0  0  0  0  0  0  0
   33.5569   35.9446   56.5572 N   0  0  0  0  0  0  0  0  0  0  0  0
   33.9184   35.8196   55.4008 O   0  0  0  0  0  0  0  0  0  0  0  0
   33.2946   34.9591   57.2231 O   0  0  0  0  0  0  0  0  0  0  0  0
   33.0267   37.4351   58.4646 C   0  0  0  0  0  0  0  0  0  0  0  0
   31.2304   38.0945   62.2904 C   0  0  0  0  0  0  0  0  0  0  0  0
   29.7920   38.9950   62.6564 Cl  0  0  0  0  0  0  0  0  0  0  0  0
   31.9507   37.5399   63.2867 C   0  0  0  0  0  0  0  0  0  0  0  0
   31.4344   37.5558   64.6651 C   0  0  0  0  0  0  0  0  0  0  0  0
   32.1610   38.1855   65.6805 C   0  0  0  0  0  0  0  0  0  0  0  0
   31.6681   38.2006   66.9681 C   0  0  0  0  0  0  0  0  0  0  0  0
   30.4627   37.5857   67.2590 C   0  0  0  0  0  0  0  0  0  0  0  0
   29.7406   36.9554   66.2606 C   0  0  0  0  0  0  0  0  0  0  0  0
   30.2176   36.9362   64.9670 C   0  0  0  0  0  0  0  0  0  0  0  0
   32.8114   39.6002   60.8767 H   0  0  0  0  0  0  0  0  0  0  0  0
   33.1168   40.8099   58.6894 H   0  0  0  0  0  0  0  0  0  0  0  0
   33.8543   40.5485   56.3563 H   0  0  0  0  0  0  0  0  0  0  0  0
   32.7943   36.5613   59.0552 H   0  0  0  0  0  0  0  0  0  0  0  0
   32.9064   37.0845   63.0732 H   0  0  0  0  0  0  0  0  0  0  0  0
   33.1038   38.6622   65.4559 H   0  0  0  0  0  0  0  0  0  0  0  0
   32.2262   38.6897   67.7528 H   0  0  0  0  0  0  0  0  0  0  0  0
   30.0841   37.5972   68.2703 H   0  0  0  0  0  0  0  0  0  0  0  0
   28.8009   36.4777   66.4953 H   0  0  0  0  0  0  0  0  0  0  0  0
   29.6529   36.4443   64.1888 H   0  0  0  0  0  0  0  0  0  0  0  0
  1  2  2  0  0  0  0
  2  3  1  0  0  0  0
  2 14  1  0  0  0  0
  3  4  1  0  0  0  0
  3 23  1  0  0  0  0
  4 13  2  0  0  0  0
  4  5  1  0  0  0  0
  5  6  2  0  0  0  0
  5 24  1  0  0  0  0
  6  7  1  0  0  0  0
  6 25  1  0  0  0  0
  7  8  1  0  0  0  0
  7  9  2  0  0  0  0
  9 10  1  0  0  0  0
  9 13  1  0  0  0  0
 10 11  2  0  0  0  0
 10 12  2  0  0  0  0
 13 26  1  0  0  0  0
 14 15  1  0  0  0  0
 14 16  2  0  0  0  0
 16 17  1  0  0  0  0
 16 27  1  0  0  0  0
 17 22  2  0  0  0  0
 17 18  1  0  0  0  0
 18 19  2  0  0  0  0
 18 28  1  0  0  0  0
 19 20  1  0  0  0  0
 19 29  1  0  0  0  0
 20 21  2  0  0  0  0
 20 30  1  0  0  0  0
 21 22  1  0  0  0  0
 21 31  1  0  0  0  0
 22 32  1  0  0  0  0
M  END
$$$$
