ZINC000000048336      none
 OpenBabel11202420153D

 27 29  0  0  0  0  0  0  0  0999 V2000
   33.6062   39.6469   58.1771 O   0  0  0  0  0  0  0  0  0  0  0  0
   32.9688   38.9205   58.9176 C   0  0  0  0  0  0  0  0  0  0  0  0
   32.6004   39.2044   60.1785 N   0  0  0  0  0  0  0  0  0  0  0  0
   31.8869   38.1554   60.7459 C   0  0  0  0  0  0  0  0  0  0  0  0
   31.3185   37.9972   62.0047 C   0  0  0  0  0  0  0  0  0  0  0  0
   30.6495   36.8320   62.3215 C   0  0  0  0  0  0  0  0  0  0  0  0
   30.5346   35.8093   61.3942 C   0  0  0  0  0  0  0  0  0  0  0  0
   31.0915   35.9472   60.1393 C   0  0  0  0  0  0  0  0  0  0  0  0
   31.7687   37.1180   59.8097 C   0  0  0  0  0  0  0  0  0  0  0  0
   32.4627   37.5771   58.5882 C   0  0  0  0  0  0  0  0  0  0  0  0
   32.6037   36.9216   57.4487 N   0  0  0  0  0  0  0  0  0  0  0  0
   33.2422   37.4636   56.4675 N   0  0  0  0  0  0  0  0  0  0  0  0
   33.3833   36.8078   55.3275 C   0  0  0  0  0  0  0  0  0  0  0  0
   34.0787   37.3981   54.2589 C   0  0  0  0  0  0  0  0  0  0  0  0
   34.6573   38.6487   54.2741 C   0  0  0  0  0  0  0  0  0  0  0  0
   35.2721   38.9724   53.0936 C   0  0  0  0  0  0  0  0  0  0  0  0
   35.2070   38.0311   52.1387 C   0  0  0  0  0  0  0  0  0  0  0  0
   34.3513   36.6605   52.6863 S   0  0  0  0  0  0  0  0  0  0  0  0
   32.8094   40.0341   60.6355 H   0  0  0  0  0  0  0  0  0  0  0  0
   31.4010   38.7872   62.7366 H   0  0  0  0  0  0  0  0  0  0  0  0
   30.2110   36.7168   63.3017 H   0  0  0  0  0  0  0  0  0  0  0  0
   30.0082   34.9028   61.6539 H   0  0  0  0  0  0  0  0  0  0  0  0
   31.0027   35.1502   59.4159 H   0  0  0  0  0  0  0  0  0  0  0  0
   32.9640   35.8186   55.2182 H   0  0  0  0  0  0  0  0  0  0  0  0
   34.6254   39.3085   55.1285 H   0  0  0  0  0  0  0  0  0  0  0  0
   35.7729   39.9171   52.9418 H   0  0  0  0  0  0  0  0  0  0  0  0
   35.6392   38.1285   51.1538 H   0  0  0  0  0  0  0  0  0  0  0  0
  1  2  2  0  0  0  0
  2 10  1  0  0  0  0
  2  3  1  0  0  0  0
  3  4  1  0  0  0  0
  3 19  1  0  0  0  0
  4  9  2  0  0  0  0
  4  5  1  0  0  0  0
  5  6  2  0  0  0  0
  5 20  1  0  0  0  0
  6  7  1  0  0  0  0
  6 21  1  0  0  0  0
  7  8  2  0  0  0  0
  7 22  1  0  0  0  0
  8  9  1  0  0  0  0
  8 23  1  0  0  0  0
  9 10  1  0  0  0  0
 10 11  2  0  0  0  0
 11 12  1  0  0  0  0
 12 13  2  0  0  0  0
 13 14  1  0  0  0  0
 13 24  1  0  0  0  0
 14 18  1  0  0  0  0
 14 15  2  0  0  0  0
 15 16  1  0  0  0  0
 15 25  1  0  0  0  0
 16 17  2  0  0  0  0
 16 26  1  0  0  0  0
 17 18  1  0  0  0  0
 17 27  1  0  0  0  0
M  END
$$$$
