ZINC000000049275      none
 OpenBabel11202420153D

 28 29  0  0  0  0  0  0  0  0999 V2000
   33.3759   39.0144   66.2891 C   0  0  0  0  0  0  0  0  0  0  0  0
   32.7312   38.2289   65.1761 C   0  0  0  0  0  0  0  0  0  0  0  0
   32.9708   36.8840   64.8761 C   0  0  0  0  0  0  0  0  0  0  0  0
   32.1980   36.5496   63.8168 C   0  0  0  0  0  0  0  0  0  0  0  0
   32.1303   35.1957   63.1585 C   0  0  0  0  0  0  0  0  0  0  0  0
   31.5013   37.6468   63.4535 N   0  0  0  0  0  0  0  0  0  0  0  0
   30.4192   37.7440   62.2036 S   0  0  0  0  0  0  0  0  0  0  0  0
   29.9347   39.0797   62.1952 O   0  0  0  0  0  0  0  0  0  0  0  0
   29.5705   36.6101   62.3185 O   0  0  0  0  0  0  0  0  0  0  0  0
   31.3287   37.5352   60.7090 C   0  0  0  0  0  0  0  0  0  0  0  0
   31.8601   38.6367   60.0642 C   0  0  0  0  0  0  0  0  0  0  0  0
   32.5737   38.4741   58.8919 C   0  0  0  0  0  0  0  0  0  0  0  0
   32.7521   37.2080   58.3606 C   0  0  0  0  0  0  0  0  0  0  0  0
   33.4447   37.0485   57.2117 F   0  0  0  0  0  0  0  0  0  0  0  0
   32.2243   36.1050   59.0103 C   0  0  0  0  0  0  0  0  0  0  0  0
   31.5107   36.2701   60.1822 C   0  0  0  0  0  0  0  0  0  0  0  0
   31.8505   38.6872   64.3240 N   0  0  0  0  0  0  0  0  0  0  0  0
   32.7722   38.9269   67.1924 H   0  0  0  0  0  0  0  0  0  0  0  0
   34.3745   38.6215   66.4799 H   0  0  0  0  0  0  0  0  0  0  0  0
   33.4470   40.0629   65.9999 H   0  0  0  0  0  0  0  0  0  0  0  0
   33.6493   36.2272   65.4000 H   0  0  0  0  0  0  0  0  0  0  0  0
   32.8737   35.1408   62.3632 H   0  0  0  0  0  0  0  0  0  0  0  0
   32.3322   34.4214   63.8986 H   0  0  0  0  0  0  0  0  0  0  0  0
   31.1362   35.0456   62.7375 H   0  0  0  0  0  0  0  0  0  0  0  0
   31.7173   39.6245   60.4767 H   0  0  0  0  0  0  0  0  0  0  0  0
   32.9880   39.3348   58.3880 H   0  0  0  0  0  0  0  0  0  0  0  0
   32.3664   35.1166   58.5989 H   0  0  0  0  0  0  0  0  0  0  0  0
   31.0949   35.4104   60.6866 H   0  0  0  0  0  0  0  0  0  0  0  0
  1  2  1  0  0  0  0
  1 18  1  0  0  0  0
  1 19  1  0  0  0  0
  1 20  1  0  0  0  0
  2 17  2  0  0  0  0
  2  3  1  0  0  0  0
  3  4  2  0  0  0  0
  3 21  1  0  0  0  0
  4  5  1  0  0  0  0
  4  6  1  0  0  0  0
  5 22  1  0  0  0  0
  5 23  1  0  0  0  0
  5 24  1  0  0  0  0
  6  7  1  0  0  0  0
  6 17  1  0  0  0  0
  7  8  2  0  0  0  0
  7  9  2  0  0  0  0
  7 10  1  0  0  0  0
 10 16  2  0  0  0  0
 10 11  1  0  0  0  0
 11 12  2  0  0  0  0
 11 25  1  0  0  0  0
 12 13  1  0  0  0  0
 12 26  1  0  0  0  0
 13 14  1  0  0  0  0
 13 15  2  0  0  0  0
 15 16  1  0  0  0  0
 15 27  1  0  0  0  0
 16 28  1  0  0  0  0
M  END
$$$$
