ZINC000000057151      none
 OpenBabel11202420153D

 26 26  0  0  0  0  0  0  0  0999 V2000
   34.9084   38.5468   53.1322 C   0  0  0  0  0  0  0  0  0  0  0  0
   34.4901   38.8226   54.4950 O   0  0  0  0  0  0  0  0  0  0  0  0
   34.0419   37.7794   55.2201 C   0  0  0  0  0  0  0  0  0  0  0  0
   34.0015   36.6700   54.7272 O   0  0  0  0  0  0  0  0  0  0  0  0
   33.5995   37.9849   56.6148 C   0  0  0  0  0  0  0  0  0  0  0  0
   33.6462   39.2599   57.1822 C   0  0  0  0  0  0  0  0  0  0  0  0
   33.2314   39.4536   58.4920 C   0  0  0  0  0  0  0  0  0  0  0  0
   33.2850   40.7300   59.0587 N   0  0  0  0  0  0  0  0  0  0  0  0
   32.7689   38.3822   59.2422 C   0  0  0  0  0  0  0  0  0  0  0  0
   32.7196   37.1044   58.6809 C   0  0  0  0  0  0  0  0  0  0  0  0
   32.2265   35.9639   59.4805 C   0  0  0  0  0  0  0  0  0  0  0  0
   31.8639   36.1375   60.6267 O   0  0  0  0  0  0  0  0  0  0  0  0
   32.1794   34.7317   58.9384 O   0  0  0  0  0  0  0  0  0  0  0  0
   31.6841   33.6589   59.7822 C   0  0  0  0  0  0  0  0  0  0  0  0
   33.1355   36.9063   57.3656 C   0  0  0  0  0  0  0  0  0  0  0  0
   35.2461   39.4703   52.6618 H   0  0  0  0  0  0  0  0  0  0  0  0
   35.7247   37.8245   53.1417 H   0  0  0  0  0  0  0  0  0  0  0  0
   34.0686   38.1386   52.5699 H   0  0  0  0  0  0  0  0  0  0  0  0
   34.0059   40.0961   56.6012 H   0  0  0  0  0  0  0  0  0  0  0  0
   33.6118   41.4792   58.5365 H   0  0  0  0  0  0  0  0  0  0  0  0
   32.9952   40.8667   59.9742 H   0  0  0  0  0  0  0  0  0  0  0  0
   32.4470   38.5363   60.2615 H   0  0  0  0  0  0  0  0  0  0  0  0
   32.3189   33.5670   60.6634 H   0  0  0  0  0  0  0  0  0  0  0  0
   30.6630   33.8819   60.0917 H   0  0  0  0  0  0  0  0  0  0  0  0
   31.6983   32.7221   59.2249 H   0  0  0  0  0  0  0  0  0  0  0  0
   33.0987   35.9191   56.9293 H   0  0  0  0  0  0  0  0  0  0  0  0
  1  2  1  0  0  0  0
  1 16  1  0  0  0  0
  1 17  1  0  0  0  0
  1 18  1  0  0  0  0
  2  3  1  0  0  0  0
  3  4  2  0  0  0  0
  3  5  1  0  0  0  0
  5 15  2  0  0  0  0
  5  6  1  0  0  0  0
  6  7  2  0  0  0  0
  6 19  1  0  0  0  0
  7  8  1  0  0  0  0
  7  9  1  0  0  0  0
  8 20  1  0  0  0  0
  8 21  1  0  0  0  0
  9 10  2  0  0  0  0
  9 22  1  0  0  0  0
 10 11  1  0  0  0  0
 10 15  1  0  0  0  0
 11 12  2  0  0  0  0
 11 13  1  0  0  0  0
 13 14  1  0  0  0  0
 14 23  1  0  0  0  0
 14 24  1  0  0  0  0
 14 25  1  0  0  0  0
 15 26  1  0  0  0  0
M  END
$$$$
