ZINC000000035886      none
 OpenBabel11202420153D

 26 28  0  0  0  0  0  0  0  0999 V2000
   34.9254   32.2862   56.0485 N   0  0  0  0  0  0  0  0  0  0  0  0
   34.2274   33.3967   55.6034 C   0  0  0  0  0  0  0  0  0  0  0  0
   34.2727   34.5749   56.1430 N   0  0  0  0  0  0  0  0  0  0  0  0
   33.5305   35.5261   55.5758 C   0  0  0  0  0  0  0  0  0  0  0  0
   33.4904   36.9132   56.0910 C   0  0  0  0  0  0  0  0  0  0  0  0
   33.8804   37.9701   55.2861 C   0  0  0  0  0  0  0  0  0  0  0  0
   33.8446   39.2753   55.7627 C   0  0  0  0  0  0  0  0  0  0  0  0
   33.4277   39.5517   57.0300 C   0  0  0  0  0  0  0  0  0  0  0  0
   33.0234   38.5092   57.8814 C   0  0  0  0  0  0  0  0  0  0  0  0
   32.5895   38.7681   59.1933 C   0  0  0  0  0  0  0  0  0  0  0  0
   32.2052   37.7349   59.9919 C   0  0  0  0  0  0  0  0  0  0  0  0
   32.2349   36.4214   59.5283 C   0  0  0  0  0  0  0  0  0  0  0  0
   32.6489   36.1345   58.2627 C   0  0  0  0  0  0  0  0  0  0  0  0
   33.0526   37.1734   57.4120 C   0  0  0  0  0  0  0  0  0  0  0  0
   32.8160   35.1341   54.5049 C   0  0  0  0  0  0  0  0  0  0  0  0
   33.1419   33.4267   54.2173 S   0  0  0  0  0  0  0  0  0  0  0  0
   35.5047   32.3559   56.8233 H   0  0  0  0  0  0  0  0  0  0  0  0
   34.8347   31.4387   55.5854 H   0  0  0  0  0  0  0  0  0  0  0  0
   34.2155   37.7785   54.2775 H   0  0  0  0  0  0  0  0  0  0  0  0
   34.1530   40.0844   55.1173 H   0  0  0  0  0  0  0  0  0  0  0  0
   33.4122   40.5725   57.3822 H   0  0  0  0  0  0  0  0  0  0  0  0
   32.5610   39.7815   59.5656 H   0  0  0  0  0  0  0  0  0  0  0  0
   31.8725   37.9362   60.9995 H   0  0  0  0  0  0  0  0  0  0  0  0
   31.9245   35.6193   60.1815 H   0  0  0  0  0  0  0  0  0  0  0  0
   32.6667   35.1117   57.9163 H   0  0  0  0  0  0  0  0  0  0  0  0
   32.1574   35.7596   53.9207 H   0  0  0  0  0  0  0  0  0  0  0  0
  1  2  1  0  0  0  0
  1 17  1  0  0  0  0
  1 18  1  0  0  0  0
  2 16  1  0  0  0  0
  2  3  2  0  0  0  0
  3  4  1  0  0  0  0
  4  5  1  0  0  0  0
  4 15  2  0  0  0  0
  5 14  2  0  0  0  0
  5  6  1  0  0  0  0
  6  7  2  0  0  0  0
  6 19  1  0  0  0  0
  7  8  1  0  0  0  0
  7 20  1  0  0  0  0
  8  9  2  0  0  0  0
  8 21  1  0  0  0  0
  9 14  1  0  0  0  0
  9 10  1  0  0  0  0
 10 11  2  0  0  0  0
 10 22  1  0  0  0  0
 11 12  1  0  0  0  0
 11 23  1  0  0  0  0
 12 13  2  0  0  0  0
 12 24  1  0  0  0  0
 13 14  1  0  0  0  0
 13 25  1  0  0  0  0
 15 16  1  0  0  0  0
 15 26  1  0  0  0  0
M  END
$$$$
