ZINC000000001816      none
 OpenBabel11202420153D

 21 22  0  0  0  0  0  0  0  0999 V2000
   33.0950   35.0819   56.5582 C   0  0  0  0  0  0  0  0  0  0  0  0
   33.1985   36.5099   57.0287 C   0  0  0  0  0  0  0  0  0  0  0  0
   33.6248   37.4944   56.1612 C   0  0  0  0  0  0  0  0  0  0  0  0
   33.7199   38.8067   56.5918 C   0  0  0  0  0  0  0  0  0  0  0  0
   34.2573   40.0396   55.4941 Cl  0  0  0  0  0  0  0  0  0  0  0  0
   33.3878   39.1401   57.8942 C   0  0  0  0  0  0  0  0  0  0  0  0
   32.9551   38.1661   58.7696 C   0  0  0  0  0  0  0  0  0  0  0  0
   32.8625   36.8395   58.3431 C   0  0  0  0  0  0  0  0  0  0  0  0
   32.4386   35.8669   59.2090 N   0  0  0  0  0  0  0  0  0  0  0  0
   31.5996   36.1675   60.1754 C   0  0  0  0  0  0  0  0  0  0  0  0
   30.9005   35.2995   61.5559 S   0  0  0  0  0  0  0  0  0  0  0  0
   29.5076   36.4663   61.4322 C   0  0  0  0  0  0  0  0  0  0  0  0
   30.6878   37.6130   60.6517 S   0  0  0  0  0  0  0  0  0  0  0  0
   32.0983   34.9036   56.1548 H   0  0  0  0  0  0  0  0  0  0  0  0
   33.8388   34.9001   55.7825 H   0  0  0  0  0  0  0  0  0  0  0  0
   33.2732   34.4092   57.3971 H   0  0  0  0  0  0  0  0  0  0  0  0
   33.8854   37.2407   55.1444 H   0  0  0  0  0  0  0  0  0  0  0  0
   33.4638   40.1658   58.2240 H   0  0  0  0  0  0  0  0  0  0  0  0
   32.6921   38.4282   59.7838 H   0  0  0  0  0  0  0  0  0  0  0  0
   28.7136   36.1322   60.7642 H   0  0  0  0  0  0  0  0  0  0  0  0
   29.1359   36.8094   62.3976 H   0  0  0  0  0  0  0  0  0  0  0  0
  1  2  1  0  0  0  0
  1 14  1  0  0  0  0
  1 15  1  0  0  0  0
  1 16  1  0  0  0  0
  2  8  2  0  0  0  0
  2  3  1  0  0  0  0
  3  4  2  0  0  0  0
  3 17  1  0  0  0  0
  4  5  1  0  0  0  0
  4  6  1  0  0  0  0
  6  7  2  0  0  0  0
  6 18  1  0  0  0  0
  7  8  1  0  0  0  0
  7 19  1  0  0  0  0
  8  9  1  0  0  0  0
  9 10  2  0  0  0  0
 10 13  1  0  0  0  0
 10 11  1  0  0  0  0
 11 12  1  0  0  0  0
 12 13  1  0  0  0  0
 12 20  1  0  0  0  0
 12 21  1  0  0  0  0
M  END
$$$$
