ZINC000000043726      none
 OpenBabel11202420153D

 30 32  0  0  0  0  0  0  0  0999 V2000
   30.3469   34.6359   62.6757 C   0  0  0  0  0  0  0  0  0  0  0  0
   31.0980   34.7622   61.3753 C   0  0  0  0  0  0  0  0  0  0  0  0
   32.1033   33.9578   60.9976 C   0  0  0  0  0  0  0  0  0  0  0  0
   32.6515   34.2441   59.7750 C   0  0  0  0  0  0  0  0  0  0  0  0
   32.0582   35.3206   59.1539 C   0  0  0  0  0  0  0  0  0  0  0  0
   32.4149   35.8352   57.8965 C   0  0  0  0  0  0  0  0  0  0  0  0
   32.8481   37.1503   57.7817 C   0  0  0  0  0  0  0  0  0  0  0  0
   32.8563   38.2218   58.7952 C   0  0  0  0  0  0  0  0  0  0  0  0
   32.4769   38.1579   59.9507 O   0  0  0  0  0  0  0  0  0  0  0  0
   33.3803   39.2858   58.1573 O   0  0  0  0  0  0  0  0  0  0  0  0
   33.6645   39.0673   57.0089 N   0  0  0  0  0  0  0  0  0  0  0  0
   33.4193   37.8510   56.6051 C   0  0  0  0  0  0  0  0  0  0  0  0
   33.6610   37.2874   55.2551 C   0  0  0  0  0  0  0  0  0  0  0  0
   34.7009   37.7791   54.4676 C   0  0  0  0  0  0  0  0  0  0  0  0
   34.9241   37.2474   53.2138 C   0  0  0  0  0  0  0  0  0  0  0  0
   34.1117   36.2345   52.7345 C   0  0  0  0  0  0  0  0  0  0  0  0
   33.0751   35.7476   53.5088 C   0  0  0  0  0  0  0  0  0  0  0  0
   32.8456   36.2678   54.7663 C   0  0  0  0  0  0  0  0  0  0  0  0
   30.7774   35.9424   60.1858 S   0  0  0  0  0  0  0  0  0  0  0  0
   30.8401   35.2365   63.4400 H   0  0  0  0  0  0  0  0  0  0  0  0
   30.3328   33.5915   62.9873 H   0  0  0  0  0  0  0  0  0  0  0  0
   29.3244   34.9884   62.5404 H   0  0  0  0  0  0  0  0  0  0  0  0
   32.4554   33.1432   61.6133 H   0  0  0  0  0  0  0  0  0  0  0  0
   33.4657   33.6822   59.3419 H   0  0  0  0  0  0  0  0  0  0  0  0
   32.3522   35.2087   57.0191 H   0  0  0  0  0  0  0  0  0  0  0  0
   35.3330   38.5719   54.8395 H   0  0  0  0  0  0  0  0  0  0  0  0
   35.7318   37.6250   52.6043 H   0  0  0  0  0  0  0  0  0  0  0  0
   34.2883   35.8255   51.7506 H   0  0  0  0  0  0  0  0  0  0  0  0
   32.4438   34.9579   53.1289 H   0  0  0  0  0  0  0  0  0  0  0  0
   32.0362   35.8857   55.3705 H   0  0  0  0  0  0  0  0  0  0  0  0
  1  2  1  0  0  0  0
  1 20  1  0  0  0  0
  1 21  1  0  0  0  0
  1 22  1  0  0  0  0
  2 19  1  0  0  0  0
  2  3  2  0  0  0  0
  3  4  1  0  0  0  0
  3 23  1  0  0  0  0
  4  5  2  0  0  0  0
  4 24  1  0  0  0  0
  5  6  1  0  0  0  0
  5 19  1  0  0  0  0
  6  7  2  0  0  0  0
  6 25  1  0  0  0  0
  7 12  1  0  0  0  0
  7  8  1  0  0  0  0
  8  9  2  0  0  0  0
  8 10  1  0  0  0  0
 10 11  1  0  0  0  0
 11 12  2  0  0  0  0
 12 13  1  0  0  0  0
 13 18  2  0  0  0  0
 13 14  1  0  0  0  0
 14 15  2  0  0  0  0
 14 26  1  0  0  0  0
 15 16  1  0  0  0  0
 15 27  1  0  0  0  0
 16 17  2  0  0  0  0
 16 28  1  0  0  0  0
 17 18  1  0  0  0  0
 17 29  1  0  0  0  0
 18 30  1  0  0  0  0
M  END
$$$$
