ZINC000000036295      none
 OpenBabel11202420153D

 28 30  0  0  0  0  0  0  0  0999 V2000
   29.6757   36.1186   64.3164 F   0  0  0  0  0  0  0  0  0  0  0  0
   30.7567   36.2974   65.1067 C   0  0  0  0  0  0  0  0  0  0  0  0
   30.6073   36.3548   66.4821 C   0  0  0  0  0  0  0  0  0  0  0  0
   31.7122   36.5438   67.2905 C   0  0  0  0  0  0  0  0  0  0  0  0
   32.9681   36.6701   66.7277 C   0  0  0  0  0  0  0  0  0  0  0  0
   33.1207   36.6073   65.3528 C   0  0  0  0  0  0  0  0  0  0  0  0
   34.3486   36.7302   64.8029 F   0  0  0  0  0  0  0  0  0  0  0  0
   32.0149   36.4179   64.5422 C   0  0  0  0  0  0  0  0  0  0  0  0
   32.1797   36.3495   63.0458 C   0  0  0  0  0  0  0  0  0  0  0  0
   30.9087   37.3645   62.2517 S   0  0  0  0  0  0  0  0  0  0  0  0
   31.6509   37.6032   60.6715 C   0  0  0  0  0  0  0  0  0  0  0  0
   31.9572   38.7502   60.1674 N   0  0  0  0  0  0  0  0  0  0  0  0
   32.5244   38.7698   58.9449 C   0  0  0  0  0  0  0  0  0  0  0  0
   32.9495   39.8813   58.1868 C   0  0  0  0  0  0  0  0  0  0  0  0
   33.5055   39.7041   56.9449 C   0  0  0  0  0  0  0  0  0  0  0  0
   33.6588   38.4313   56.4152 C   0  0  0  0  0  0  0  0  0  0  0  0
   33.2513   37.3316   57.1375 C   0  0  0  0  0  0  0  0  0  0  0  0
   32.6848   37.4927   58.3993 C   0  0  0  0  0  0  0  0  0  0  0  0
   32.0720   36.3123   59.5549 S   0  0  0  0  0  0  0  0  0  0  0  0
   29.6263   36.2566   66.9231 H   0  0  0  0  0  0  0  0  0  0  0  0
   31.5942   36.5925   68.3630 H   0  0  0  0  0  0  0  0  0  0  0  0
   33.8309   36.8180   67.3604 H   0  0  0  0  0  0  0  0  0  0  0  0
   32.0775   35.3155   62.7160 H   0  0  0  0  0  0  0  0  0  0  0  0
   33.1665   36.7225   62.7714 H   0  0  0  0  0  0  0  0  0  0  0  0
   32.8360   40.8783   58.5863 H   0  0  0  0  0  0  0  0  0  0  0  0
   33.8268   40.5632   56.3748 H   0  0  0  0  0  0  0  0  0  0  0  0
   34.0979   38.3027   55.4370 H   0  0  0  0  0  0  0  0  0  0  0  0
   33.3714   36.3412   56.7238 H   0  0  0  0  0  0  0  0  0  0  0  0
  1  2  1  0  0  0  0
  2  8  2  0  0  0  0
  2  3  1  0  0  0  0
  3  4  2  0  0  0  0
  3 20  1  0  0  0  0
  4  5  1  0  0  0  0
  4 21  1  0  0  0  0
  5  6  2  0  0  0  0
  5 22  1  0  0  0  0
  6  7  1  0  0  0  0
  6  8  1  0  0  0  0
  8  9  1  0  0  0  0
  9 10  1  0  0  0  0
  9 23  1  0  0  0  0
  9 24  1  0  0  0  0
 10 11  1  0  0  0  0
 11 19  1  0  0  0  0
 11 12  2  0  0  0  0
 12 13  1  0  0  0  0
 13 18  2  0  0  0  0
 13 14  1  0  0  0  0
 14 15  2  0  0  0  0
 14 25  1  0  0  0  0
 15 16  1  0  0  0  0
 15 26  1  0  0  0  0
 16 17  2  0  0  0  0
 16 27  1  0  0  0  0
 17 18  1  0  0  0  0
 17 28  1  0  0  0  0
 18 19  1  0  0  0  0
M  END
$$$$
