ZINC000000032551      none
 OpenBabel11202420153D

 35 37  0  0  0  0  0  0  0  0999 V2000
   33.2205   39.8218   58.2904 C   0  0  0  0  0  0  0  0  0  0  0  0
   32.6807   38.6113   59.0077 C   0  0  0  0  0  0  0  0  0  0  0  0
   32.1229   38.7318   60.1905 N   0  0  0  0  0  0  0  0  0  0  0  0
   31.6458   37.7434   60.8508 N   0  0  0  0  0  0  0  0  0  0  0  0
   31.6661   36.5000   60.4090 C   0  0  0  0  0  0  0  0  0  0  0  0
   31.1450   35.4946   61.1534 O   0  0  0  0  0  0  0  0  0  0  0  0
   30.0583   35.8255   62.0206 C   0  0  0  0  0  0  0  0  0  0  0  0
   30.5052   36.8717   63.0091 C   0  0  0  0  0  0  0  0  0  0  0  0
   29.6991   37.9641   63.2712 C   0  0  0  0  0  0  0  0  0  0  0  0
   30.1070   38.9213   64.1810 C   0  0  0  0  0  0  0  0  0  0  0  0
   31.3252   38.7913   64.8218 C   0  0  0  0  0  0  0  0  0  0  0  0
   32.1330   37.7017   64.5562 C   0  0  0  0  0  0  0  0  0  0  0  0
   33.4372   37.5627   65.2423 N   0  0  0  0  0  0  0  0  0  0  0  0
   33.7984   38.4085   66.0409 O   0  0  0  0  0  0  0  0  0  0  0  0
   34.1492   36.6025   65.0083 O   0  0  0  0  0  0  0  0  0  0  0  0
   31.7231   36.7420   63.6493 C   0  0  0  0  0  0  0  0  0  0  0  0
   32.2402   36.2366   59.1469 C   0  0  0  0  0  0  0  0  0  0  0  0
   32.3061   34.9508   58.5980 C   0  0  0  0  0  0  0  0  0  0  0  0
   32.8762   34.7750   57.3720 C   0  0  0  0  0  0  0  0  0  0  0  0
   33.3935   35.8538   56.6581 C   0  0  0  0  0  0  0  0  0  0  0  0
   33.3455   37.1191   57.1626 C   0  0  0  0  0  0  0  0  0  0  0  0
   32.7720   37.3355   58.4223 C   0  0  0  0  0  0  0  0  0  0  0  0
   34.2652   39.9701   58.5634 H   0  0  0  0  0  0  0  0  0  0  0  0
   33.1443   39.6701   57.2137 H   0  0  0  0  0  0  0  0  0  0  0  0
   32.6422   40.7008   58.5752 H   0  0  0  0  0  0  0  0  0  0  0  0
   29.2281   36.2141   61.4308 H   0  0  0  0  0  0  0  0  0  0  0  0
   29.7366   34.9329   62.5569 H   0  0  0  0  0  0  0  0  0  0  0  0
   28.7494   38.0675   62.7676 H   0  0  0  0  0  0  0  0  0  0  0  0
   29.4757   39.7725   64.3887 H   0  0  0  0  0  0  0  0  0  0  0  0
   31.6454   39.5410   65.5302 H   0  0  0  0  0  0  0  0  0  0  0  0
   32.3546   35.8909   63.4415 H   0  0  0  0  0  0  0  0  0  0  0  0
   31.9094   34.1057   59.1408 H   0  0  0  0  0  0  0  0  0  0  0  0
   32.9274   33.7833   56.9473 H   0  0  0  0  0  0  0  0  0  0  0  0
   33.8394   35.6847   55.6891 H   0  0  0  0  0  0  0  0  0  0  0  0
   33.7500   37.9465   56.5984 H   0  0  0  0  0  0  0  0  0  0  0  0
  1  2  1  0  0  0  0
  1 23  1  0  0  0  0
  1 24  1  0  0  0  0
  1 25  1  0  0  0  0
  2 22  2  0  0  0  0
  2  3  1  0  0  0  0
  3  4  2  0  0  0  0
  4  5  1  0  0  0  0
  5  6  1  0  0  0  0
  5 17  2  0  0  0  0
  6  7  1  0  0  0  0
  7  8  1  0  0  0  0
  7 26  1  0  0  0  0
  7 27  1  0  0  0  0
  8 16  2  0  0  0  0
  8  9  1  0  0  0  0
  9 10  2  0  0  0  0
  9 28  1  0  0  0  0
 10 11  1  0  0  0  0
 10 29  1  0  0  0  0
 11 12  2  0  0  0  0
 11 30  1  0  0  0  0
 12 13  1  0  0  0  0
 12 16  1  0  0  0  0
 13 14  2  0  0  0  0
 13 15  2  0  0  0  0
 16 31  1  0  0  0  0
 17 22  1  0  0  0  0
 17 18  1  0  0  0  0
 18 19  2  0  0  0  0
 18 32  1  0  0  0  0
 19 20  1  0  0  0  0
 19 33  1  0  0  0  0
 20 21  2  0  0  0  0
 20 34  1  0  0  0  0
 21 22  1  0  0  0  0
 21 35  1  0  0  0  0
M  END
$$$$
