ZINC000000001217      none
 OpenBabel11202420153D

 25 26  0  0  1  0  0  0  0  0999 V2000
   31.8884   33.6134   61.4891 C   0  0  0  0  0  0  0  0  0  0  0  0
   31.3472   34.9743   61.5255 N   0  0  0  0  0  0  0  0  0  0  0  0
   31.4910   35.8782   60.5381 C   0  0  0  0  0  0  0  0  0  0  0  0
   32.0902   35.6843   59.5017 O   0  0  0  0  0  0  0  0  0  0  0  0
   30.7964   37.1699   60.9089 C   0  0  0  0  0  0  0  0  0  0  0  0
   29.8631   36.7768   62.0774 C   0  0  0  0  0  0  0  0  0  0  0  0
   30.5766   35.5294   62.6444 C   0  0  2  0  0  0  0  0  0  0  0  0
   29.8439   34.8026   62.9951 H   0  0  0  0  0  0  0  0  0  0  0  0
   31.4995   35.9227   63.7690 C   0  0  0  0  0  0  0  0  0  0  0  0
   31.0629   35.8764   65.0844 C   0  0  0  0  0  0  0  0  0  0  0  0
   31.9445   36.2525   66.0858 C   0  0  0  0  0  0  0  0  0  0  0  0
   33.2243   36.6468   65.7433 C   0  0  0  0  0  0  0  0  0  0  0  0
   33.6069   36.6734   64.4818 N   0  0  0  0  0  0  0  0  0  0  0  0
   32.7936   36.3279   63.5029 C   0  0  0  0  0  0  0  0  0  0  0  0
   31.1528   32.9416   61.0469 H   0  0  0  0  0  0  0  0  0  0  0  0
   32.7989   33.6005   60.8900 H   0  0  0  0  0  0  0  0  0  0  0  0
   32.1163   33.2858   62.5034 H   0  0  0  0  0  0  0  0  0  0  0  0
   30.2156   37.5461   60.0667 H   0  0  0  0  0  0  0  0  0  0  0  0
   31.5218   37.9156   61.2343 H   0  0  0  0  0  0  0  0  0  0  0  0
   28.8671   36.5247   61.7133 H   0  0  0  0  0  0  0  0  0  0  0  0
   29.8150   37.5710   62.8224 H   0  0  0  0  0  0  0  0  0  0  0  0
   30.0582   35.5594   65.3226 H   0  0  0  0  0  0  0  0  0  0  0  0
   31.6369   36.2332   67.1209 H   0  0  0  0  0  0  0  0  0  0  0  0
   33.9187   36.9370   66.5181 H   0  0  0  0  0  0  0  0  0  0  0  0
   33.1427   36.3623   62.4816 H   0  0  0  0  0  0  0  0  0  0  0  0
  1  2  1  0  0  0  0
  1 15  1  0  0  0  0
  1 16  1  0  0  0  0
  1 17  1  0  0  0  0
  2  7  1  0  0  0  0
  2  3  1  0  0  0  0
  3  4  2  0  0  0  0
  3  5  1  0  0  0  0
  5  6  1  0  0  0  0
  5 18  1  0  0  0  0
  5 19  1  0  0  0  0
  6  7  1  0  0  0  0
  6 20  1  0  0  0  0
  6 21  1  0  0  0  0
  7  8  1  1  0  0  0
  7  9  1  0  0  0  0
  9 14  2  0  0  0  0
  9 10  1  0  0  0  0
 10 11  2  0  0  0  0
 10 22  1  0  0  0  0
 11 12  1  0  0  0  0
 11 23  1  0  0  0  0
 12 13  2  0  0  0  0
 12 24  1  0  0  0  0
 13 14  1  0  0  0  0
 14 25  1  0  0  0  0
M  END
$$$$
