ZINC000000004260      none
 OpenBabel11202420153D

 35 37  0  0  1  0  0  0  0  0999 V2000
   34.1086   36.6577   53.5749 C   0  0  0  0  0  0  0  0  0  0  0  0
   33.6184   36.8610   54.9404 N   0  0  0  0  0  0  0  0  0  0  0  0
   33.5071   35.7886   55.7998 C   0  0  0  0  0  0  0  0  0  0  0  0
   33.8393   34.5652   55.4087 N   0  0  0  0  0  0  0  0  0  0  0  0
   33.7380   33.5270   56.2228 C   0  0  0  0  0  0  0  0  0  0  0  0
   33.3084   33.6287   57.4581 N   0  0  0  0  0  0  0  0  0  0  0  0
   32.9456   34.8210   57.9565 C   0  0  0  0  0  0  0  0  0  0  0  0
   32.4834   34.9615   59.2693 C   0  0  0  0  0  0  0  0  0  0  0  0
   32.1161   36.2182   59.7309 C   0  0  0  0  0  0  0  0  0  0  0  0
   31.6225   36.3748   61.1112 C   0  0  0  0  0  0  0  0  0  0  0  0
   32.3876   36.0478   62.1000 N   0  0  0  0  0  0  0  0  0  0  0  0
   31.9560   36.1533   63.4249 N   0  0  0  0  0  0  0  0  0  0  0  0
   30.6483   36.3044   63.7086 C   0  0  0  0  0  0  0  0  0  0  0  0
   30.2882   36.4720   64.8547 O   0  0  0  0  0  0  0  0  0  0  0  0
   29.6338   36.2647   62.5927 C   0  0  0  0  0  0  0  0  0  0  0  0
   30.2378   36.9189   61.3443 C   0  0  2  0  0  0  0  0  0  0  0  0
   30.2915   37.9983   61.4859 H   0  0  0  0  0  0  0  0  0  0  0  0
   29.3581   36.6086   60.1316 C   0  0  0  0  0  0  0  0  0  0  0  0
   32.2161   37.3435   58.8939 C   0  0  0  0  0  0  0  0  0  0  0  0
   32.6638   37.2217   57.6156 C   0  0  0  0  0  0  0  0  0  0  0  0
   33.0360   35.9637   57.1233 C   0  0  0  0  0  0  0  0  0  0  0  0
   35.1155   36.2418   53.6086 H   0  0  0  0  0  0  0  0  0  0  0  0
   33.4477   35.9675   53.0506 H   0  0  0  0  0  0  0  0  0  0  0  0
   34.1273   37.6126   53.0497 H   0  0  0  0  0  0  0  0  0  0  0  0
   33.3719   37.7501   55.2399 H   0  0  0  0  0  0  0  0  0  0  0  0
   34.0222   32.5525   55.8539 H   0  0  0  0  0  0  0  0  0  0  0  0
   32.4087   34.0999   59.9161 H   0  0  0  0  0  0  0  0  0  0  0  0
   32.6038   36.1176   64.1461 H   0  0  0  0  0  0  0  0  0  0  0  0
   29.3719   35.2292   62.3751 H   0  0  0  0  0  0  0  0  0  0  0  0
   28.7404   36.8121   62.8929 H   0  0  0  0  0  0  0  0  0  0  0  0
   29.4240   35.5461   59.8973 H   0  0  0  0  0  0  0  0  0  0  0  0
   28.3236   36.8674   60.3575 H   0  0  0  0  0  0  0  0  0  0  0  0
   29.6999   37.1912   59.2761 H   0  0  0  0  0  0  0  0  0  0  0  0
   31.9304   38.3151   59.2692 H   0  0  0  0  0  0  0  0  0  0  0  0
   32.7328   38.0929   56.9812 H   0  0  0  0  0  0  0  0  0  0  0  0
  1  2  1  0  0  0  0
  1 22  1  0  0  0  0
  1 23  1  0  0  0  0
  1 24  1  0  0  0  0
  2  3  1  0  0  0  0
  2 25  1  0  0  0  0
  3 21  2  0  0  0  0
  3  4  1  0  0  0  0
  4  5  2  0  0  0  0
  5  6  1  0  0  0  0
  5 26  1  0  0  0  0
  6  7  2  0  0  0  0
  7 21  1  0  0  0  0
  7  8  1  0  0  0  0
  8  9  2  0  0  0  0
  8 27  1  0  0  0  0
  9 10  1  0  0  0  0
  9 19  1  0  0  0  0
 10 16  1  0  0  0  0
 10 11  2  0  0  0  0
 11 12  1  0  0  0  0
 12 13  1  0  0  0  0
 12 28  1  0  0  0  0
 13 14  2  0  0  0  0
 13 15  1  0  0  0  0
 15 16  1  0  0  0  0
 15 29  1  0  0  0  0
 15 30  1  0  0  0  0
 16 17  1  1  0  0  0
 16 18  1  0  0  0  0
 18 31  1  0  0  0  0
 18 32  1  0  0  0  0
 18 33  1  0  0  0  0
 19 20  2  0  0  0  0
 19 34  1  0  0  0  0
 20 21  1  0  0  0  0
 20 35  1  0  0  0  0
M  END
$$$$
