ZINC000000040284      none
 OpenBabel11202420153D

 26 27  0  0  0  0  0  0  0  0999 V2000
   33.3424   37.5734   55.5083 C   0  0  0  0  0  0  0  0  0  0  0  0
   32.9715   37.3524   56.9521 C   0  0  0  0  0  0  0  0  0  0  0  0
   32.6593   36.2087   57.4962 N   0  0  0  0  0  0  0  0  0  0  0  0
   32.3769   36.4116   58.8516 N   0  0  0  0  0  0  0  0  0  0  0  0
   32.0027   35.4194   59.7679 C   0  0  0  0  0  0  0  0  0  0  0  0
   31.1851   35.7386   60.8437 C   0  0  0  0  0  0  0  0  0  0  0  0
   30.8138   34.7575   61.7421 C   0  0  0  0  0  0  0  0  0  0  0  0
   31.2643   33.4601   61.5767 C   0  0  0  0  0  0  0  0  0  0  0  0
   32.0835   33.1407   60.5099 C   0  0  0  0  0  0  0  0  0  0  0  0
   32.4536   34.1163   59.6049 C   0  0  0  0  0  0  0  0  0  0  0  0
   32.5256   37.7211   59.1267 C   0  0  0  0  0  0  0  0  0  0  0  0
   32.2902   38.4813   60.6696 Cl  0  0  0  0  0  0  0  0  0  0  0  0
   32.9005   38.3487   57.9528 C   0  0  0  0  0  0  0  0  0  0  0  0
   33.1692   39.7860   57.7766 C   0  0  0  0  0  0  0  0  0  0  0  0
   33.0621   40.6252   58.8258 N   0  0  0  0  0  0  0  0  0  0  0  0
   33.4878   40.2157   56.6842 O   0  0  0  0  0  0  0  0  0  0  0  0
   34.4207   37.4666   55.3897 H   0  0  0  0  0  0  0  0  0  0  0  0
   32.8338   36.8375   54.8857 H   0  0  0  0  0  0  0  0  0  0  0  0
   33.0411   38.5762   55.2052 H   0  0  0  0  0  0  0  0  0  0  0  0
   30.8366   36.7522   60.9757 H   0  0  0  0  0  0  0  0  0  0  0  0
   30.1743   35.0042   62.5767 H   0  0  0  0  0  0  0  0  0  0  0  0
   30.9757   32.6957   62.2828 H   0  0  0  0  0  0  0  0  0  0  0  0
   32.4339   32.1269   60.3836 H   0  0  0  0  0  0  0  0  0  0  0  0
   33.0928   33.8657   58.7713 H   0  0  0  0  0  0  0  0  0  0  0  0
   32.8081   40.2825   59.6969 H   0  0  0  0  0  0  0  0  0  0  0  0
   33.2391   41.5719   58.7097 H   0  0  0  0  0  0  0  0  0  0  0  0
  1  2  1  0  0  0  0
  1 17  1  0  0  0  0
  1 18  1  0  0  0  0
  1 19  1  0  0  0  0
  2 13  1  0  0  0  0
  2  3  2  0  0  0  0
  3  4  1  0  0  0  0
  4  5  1  0  0  0  0
  4 11  1  0  0  0  0
  5 10  2  0  0  0  0
  5  6  1  0  0  0  0
  6  7  2  0  0  0  0
  6 20  1  0  0  0  0
  7  8  1  0  0  0  0
  7 21  1  0  0  0  0
  8  9  2  0  0  0  0
  8 22  1  0  0  0  0
  9 10  1  0  0  0  0
  9 23  1  0  0  0  0
 10 24  1  0  0  0  0
 11 12  1  0  0  0  0
 11 13  2  0  0  0  0
 13 14  1  0  0  0  0
 14 15  1  0  0  0  0
 14 16  2  0  0  0  0
 15 25  1  0  0  0  0
 15 26  1  0  0  0  0
M  END
$$$$
