ZINC000000051053      none
 OpenBabel11202420153D

 31 32  0  0  0  0  0  0  0  0999 V2000
   34.4169   40.3600   55.1288 N   0  0  0  0  0  0  0  0  0  0  0  0
   34.0395   39.7413   56.0037 C   0  0  0  0  0  0  0  0  0  0  0  0
   33.5638   38.9615   57.1065 C   0  0  0  0  0  0  0  0  0  0  0  0
   33.2943   37.5732   57.1008 C   0  0  0  0  0  0  0  0  0  0  0  0
   32.8839   37.2332   58.2904 N   0  0  0  0  0  0  0  0  0  0  0  0
   32.8587   38.3667   59.1099 N   0  0  0  0  0  0  0  0  0  0  0  0
   32.4518   38.3970   60.5170 C   0  0  0  0  0  0  0  0  0  0  0  0
   31.1658   37.5872   60.6936 C   0  0  0  0  0  0  0  0  0  0  0  0
   31.5060   36.0968   60.7553 C   0  0  0  0  0  0  0  0  0  0  0  0
   30.2201   35.2870   60.9319 C   0  0  0  0  0  0  0  0  0  0  0  0
   29.5277   35.7061   62.2303 C   0  0  0  0  0  0  0  0  0  0  0  0
   29.1873   37.1965   62.1685 C   0  0  0  0  0  0  0  0  0  0  0  0
   30.4732   38.0063   61.9920 C   0  0  0  0  0  0  0  0  0  0  0  0
   33.2780   39.4262   58.3874 C   0  0  0  0  0  0  0  0  0  0  0  0
   33.4001   40.7281   58.8344 N   0  0  0  0  0  0  0  0  0  0  0  0
   33.4125   36.9086   56.2577 H   0  0  0  0  0  0  0  0  0  0  0  0
   32.2763   39.4286   60.8223 H   0  0  0  0  0  0  0  0  0  0  0  0
   33.2407   37.9650   61.1327 H   0  0  0  0  0  0  0  0  0  0  0  0
   30.5005   37.7734   59.8505 H   0  0  0  0  0  0  0  0  0  0  0  0
   31.9994   35.7982   59.8304 H   0  0  0  0  0  0  0  0  0  0  0  0
   32.1714   35.9106   61.5984 H   0  0  0  0  0  0  0  0  0  0  0  0
   30.4625   34.2252   60.9758 H   0  0  0  0  0  0  0  0  0  0  0  0
   29.5548   35.4730   60.0888 H   0  0  0  0  0  0  0  0  0  0  0  0
   30.1928   35.5199   63.0734 H   0  0  0  0  0  0  0  0  0  0  0  0
   28.6114   35.1291   62.3560 H   0  0  0  0  0  0  0  0  0  0  0  0
   28.6938   37.4952   63.0935 H   0  0  0  0  0  0  0  0  0  0  0  0
   28.5220   37.3828   61.3254 H   0  0  0  0  0  0  0  0  0  0  0  0
   31.1386   37.8202   62.8350 H   0  0  0  0  0  0  0  0  0  0  0  0
   30.2309   39.0682   61.9480 H   0  0  0  0  0  0  0  0  0  0  0  0
   33.1733   40.9494   59.7511 H   0  0  0  0  0  0  0  0  0  0  0  0
   33.7127   41.4206   58.2313 H   0  0  0  0  0  0  0  0  0  0  0  0
  1  2  3  0  0  0  0
  2  3  1  0  0  0  0
  3 14  2  0  0  0  0
  3  4  1  0  0  0  0
  4  5  2  0  0  0  0
  4 16  1  0  0  0  0
  5  6  1  0  0  0  0
  6  7  1  0  0  0  0
  6 14  1  0  0  0  0
  7  8  1  0  0  0  0
  7 17  1  0  0  0  0
  7 18  1  0  0  0  0
  8 13  1  0  0  0  0
  8  9  1  0  0  0  0
  8 19  1  0  0  0  0
  9 10  1  0  0  0  0
  9 20  1  0  0  0  0
  9 21  1  0  0  0  0
 10 11  1  0  0  0  0
 10 22  1  0  0  0  0
 10 23  1  0  0  0  0
 11 12  1  0  0  0  0
 11 24  1  0  0  0  0
 11 25  1  0  0  0  0
 12 13  1  0  0  0  0
 12 26  1  0  0  0  0
 12 27  1  0  0  0  0
 13 28  1  0  0  0  0
 13 29  1  0  0  0  0
 14 15  1  0  0  0  0
 15 30  1  0  0  0  0
 15 31  1  0  0  0  0
M  END
$$$$
