ZINC000000046861      none
 OpenBabel11202420153D

 32 33  0  0  0  0  0  0  0  0999 V2000
   32.2661   33.6915   60.3204 C   0  0  0  0  0  0  0  0  0  0  0  0
   31.5384   35.0373   60.3073 C   0  0  0  0  0  0  0  0  0  0  0  0
   32.1515   35.9296   59.2590 C   0  0  0  0  0  0  0  0  0  0  0  0
   32.4416   35.4258   58.0059 C   0  0  0  0  0  0  0  0  0  0  0  0
   32.9989   36.2453   57.0418 C   0  0  0  0  0  0  0  0  0  0  0  0
   33.2730   37.5700   57.3301 C   0  0  0  0  0  0  0  0  0  0  0  0
   32.9906   38.0784   58.5825 C   0  0  0  0  0  0  0  0  0  0  0  0
   32.4303   37.2579   59.5533 C   0  0  0  0  0  0  0  0  0  0  0  0
   32.1435   37.7694   60.8229 N   0  0  0  0  0  0  0  0  0  0  0  0
   30.8769   37.7581   61.2836 C   0  0  0  0  0  0  0  0  0  0  0  0
   29.9837   37.3032   60.5954 O   0  0  0  0  0  0  0  0  0  0  0  0
   30.5739   38.2983   62.6242 C   0  0  0  0  0  0  0  0  0  0  0  0
   29.3010   38.3608   63.2391 C   0  0  0  0  0  0  0  0  0  0  0  0
   29.5117   38.9256   64.4510 C   0  0  0  0  0  0  0  0  0  0  0  0
   30.8326   39.1902   64.5447 N   0  0  0  0  0  0  0  0  0  0  0  0
   31.4827   39.8114   65.7012 C   0  0  0  0  0  0  0  0  0  0  0  0
   31.4371   38.8193   63.4735 N   0  0  0  0  0  0  0  0  0  0  0  0
   33.3197   33.8504   60.5496 H   0  0  0  0  0  0  0  0  0  0  0  0
   31.8227   33.0460   61.0785 H   0  0  0  0  0  0  0  0  0  0  0  0
   32.1743   33.2191   59.3423 H   0  0  0  0  0  0  0  0  0  0  0  0
   31.6302   35.5095   61.2854 H   0  0  0  0  0  0  0  0  0  0  0  0
   30.4847   34.8783   60.0781 H   0  0  0  0  0  0  0  0  0  0  0  0
   32.2289   34.3920   57.7777 H   0  0  0  0  0  0  0  0  0  0  0  0
   33.2211   35.8501   56.0616 H   0  0  0  0  0  0  0  0  0  0  0  0
   33.7086   38.2074   56.5749 H   0  0  0  0  0  0  0  0  0  0  0  0
   33.2048   39.1128   58.8069 H   0  0  0  0  0  0  0  0  0  0  0  0
   32.8560   38.1323   61.3719 H   0  0  0  0  0  0  0  0  0  0  0  0
   28.3595   38.0261   62.8286 H   0  0  0  0  0  0  0  0  0  0  0  0
   28.7625   39.1308   65.2012 H   0  0  0  0  0  0  0  0  0  0  0  0
   31.4871   40.8943   65.5774 H   0  0  0  0  0  0  0  0  0  0  0  0
   30.9365   39.5515   66.6080 H   0  0  0  0  0  0  0  0  0  0  0  0
   32.5083   39.4503   65.7788 H   0  0  0  0  0  0  0  0  0  0  0  0
  1  2  1  0  0  0  0
  1 18  1  0  0  0  0
  1 19  1  0  0  0  0
  1 20  1  0  0  0  0
  2  3  1  0  0  0  0
  2 21  1  0  0  0  0
  2 22  1  0  0  0  0
  3  8  2  0  0  0  0
  3  4  1  0  0  0  0
  4  5  2  0  0  0  0
  4 23  1  0  0  0  0
  5  6  1  0  0  0  0
  5 24  1  0  0  0  0
  6  7  2  0  0  0  0
  6 25  1  0  0  0  0
  7  8  1  0  0  0  0
  7 26  1  0  0  0  0
  8  9  1  0  0  0  0
  9 10  1  0  0  0  0
  9 27  1  0  0  0  0
 10 11  2  0  0  0  0
 10 12  1  0  0  0  0
 12 17  2  0  0  0  0
 12 13  1  0  0  0  0
 13 14  2  0  0  0  0
 13 28  1  0  0  0  0
 14 15  1  0  0  0  0
 14 29  1  0  0  0  0
 15 16  1  0  0  0  0
 15 17  1  0  0  0  0
 16 30  1  0  0  0  0
 16 31  1  0  0  0  0
 16 32  1  0  0  0  0
M  END
$$$$
