ZINC000000008253      none
 OpenBabel11202420153D

 37 39  0  0  0  0  0  0  0  0999 V2000
   35.3003   41.5672   52.8091 C   0  0  0  0  0  0  0  0  0  0  0  0
   34.8060   40.9002   53.9722 O   0  0  0  0  0  0  0  0  0  0  0  0
   34.6379   39.5534   53.8870 C   0  0  0  0  0  0  0  0  0  0  0  0
   34.9444   38.8899   52.7015 C   0  0  0  0  0  0  0  0  0  0  0  0
   34.7800   37.5269   52.5979 C   0  0  0  0  0  0  0  0  0  0  0  0
   34.3095   36.7986   53.6856 C   0  0  0  0  0  0  0  0  0  0  0  0
   34.0395   35.4609   53.8838 N   0  0  0  0  0  0  0  0  0  0  0  0
   34.1632   34.7631   53.2214 H   0  0  0  0  0  0  0  0  0  0  0  0
   33.5769   35.2639   55.1561 C   0  0  0  0  0  0  0  0  0  0  0  0
   33.5252   36.4347   55.8108 C   0  0  0  0  0  0  0  0  0  0  0  0
   33.0722   36.6474   57.2323 C   0  0  0  0  0  0  0  0  0  0  0  0
   32.6672   35.3050   57.8448 C   0  0  0  0  0  0  0  0  0  0  0  0
   32.2269   35.5118   59.2266 N   0  0  0  0  0  0  0  0  0  0  0  0
   31.8206   34.4627   59.9687 C   0  0  0  0  0  0  0  0  0  0  0  0
   31.8195   33.3473   59.4923 O   0  0  0  0  0  0  0  0  0  0  0  0
   31.3677   34.6753   61.3901 C   0  0  0  0  0  0  0  0  0  0  0  0
   30.6333   35.9790   61.7101 C   0  0  0  0  0  0  0  0  0  0  0  0
   32.0685   35.7689   62.1988 C   0  0  0  0  0  0  0  0  0  0  0  0
   33.9930   37.4665   54.8820 C   0  0  0  0  0  0  0  0  0  0  0  0
   34.1636   38.8496   54.9756 C   0  0  0  0  0  0  0  0  0  0  0  0
   34.6107   41.4101   51.9796 H   0  0  0  0  0  0  0  0  0  0  0  0
   35.3875   42.6346   53.0119 H   0  0  0  0  0  0  0  0  0  0  0  0
   36.2795   41.1657   52.5486 H   0  0  0  0  0  0  0  0  0  0  0  0
   35.3148   39.4498   51.8555 H   0  0  0  0  0  0  0  0  0  0  0  0
   35.0208   37.0225   51.6739 H   0  0  0  0  0  0  0  0  0  0  0  0
   33.2948   34.3079   55.5721 H   0  0  0  0  0  0  0  0  0  0  0  0
   33.8872   37.0803   57.8124 H   0  0  0  0  0  0  0  0  0  0  0  0
   32.2183   37.3245   57.2440 H   0  0  0  0  0  0  0  0  0  0  0  0
   31.8523   34.8721   57.2647 H   0  0  0  0  0  0  0  0  0  0  0  0
   33.5212   34.6278   57.8330 H   0  0  0  0  0  0  0  0  0  0  0  0
   32.2277   36.4039   59.6076 H   0  0  0  0  0  0  0  0  0  0  0  0
   31.0547   33.7775   61.9232 H   0  0  0  0  0  0  0  0  0  0  0  0
   30.4778   36.6827   60.8924 H   0  0  0  0  0  0  0  0  0  0  0  0
   29.8374   35.9388   62.4537 H   0  0  0  0  0  0  0  0  0  0  0  0
   32.2164   35.5906   63.2639 H   0  0  0  0  0  0  0  0  0  0  0  0
   32.8576   36.3341   61.7027 H   0  0  0  0  0  0  0  0  0  0  0  0
   33.9256   39.3653   55.8942 H   0  0  0  0  0  0  0  0  0  0  0  0
  1  2  1  0  0  0  0
  1 21  1  0  0  0  0
  1 22  1  0  0  0  0
  1 23  1  0  0  0  0
  2  3  1  0  0  0  0
  3 20  2  0  0  0  0
  3  4  1  0  0  0  0
  4  5  2  0  0  0  0
  4 24  1  0  0  0  0
  5  6  1  0  0  0  0
  5 25  1  0  0  0  0
  6 19  2  0  0  0  0
  6  7  1  0  0  0  0
  7  8  1  0  0  0  0
  7  9  1  0  0  0  0
  9 10  2  0  0  0  0
  9 26  1  0  0  0  0
 10 11  1  0  0  0  0
 10 19  1  0  0  0  0
 11 12  1  0  0  0  0
 11 27  1  0  0  0  0
 11 28  1  0  0  0  0
 12 13  1  0  0  0  0
 12 29  1  0  0  0  0
 12 30  1  0  0  0  0
 13 14  1  0  0  0  0
 13 31  1  0  0  0  0
 14 15  2  0  0  0  0
 14 16  1  0  0  0  0
 16 18  1  0  0  0  0
 16 17  1  0  0  0  0
 16 32  1  0  0  0  0
 17 18  1  0  0  0  0
 17 33  1  0  0  0  0
 17 34  1  0  0  0  0
 18 35  1  0  0  0  0
 18 36  1  0  0  0  0
 19 20  1  0  0  0  0
 20 37  1  0  0  0  0
M  END
$$$$
