ZINC000000048374      none
 OpenBabel11202420153D

 34 35  0  0  0  0  0  0  0  0999 V2000
   29.3420   32.2143   65.1478 C   0  0  0  0  0  0  0  0  0  0  0  0
   29.5281   33.6801   64.8508 C   0  0  0  0  0  0  0  0  0  0  0  0
   29.2976   34.5066   65.7081 O   0  0  0  0  0  0  0  0  0  0  0  0
   29.9887   34.1079   63.5241 C   0  0  0  0  0  0  0  0  0  0  0  0
   29.5931   35.3487   63.0092 C   0  0  0  0  0  0  0  0  0  0  0  0
   30.0233   35.7420   61.7740 C   0  0  0  0  0  0  0  0  0  0  0  0
   30.8535   34.9109   61.0263 C   0  0  0  0  0  0  0  0  0  0  0  0
   31.2893   35.3157   59.7676 N   0  0  0  0  0  0  0  0  0  0  0  0
   32.0153   36.4436   59.6363 C   0  0  0  0  0  0  0  0  0  0  0  0
   32.4015   37.3786   61.0175 S   0  0  0  0  0  0  0  0  0  0  0  0
   32.4373   36.8354   58.4178 N   0  0  0  0  0  0  0  0  0  0  0  0
   33.1632   37.9633   58.2865 C   0  0  0  0  0  0  0  0  0  0  0  0
   33.4374   38.6270   59.2668 O   0  0  0  0  0  0  0  0  0  0  0  0
   33.6258   38.3929   56.9505 C   0  0  0  0  0  0  0  0  0  0  0  0
   33.8350   37.4534   55.9331 C   0  0  0  0  0  0  0  0  0  0  0  0
   34.2680   37.9077   54.7002 C   0  0  0  0  0  0  0  0  0  0  0  0
   34.4840   39.2618   54.5150 C   0  0  0  0  0  0  0  0  0  0  0  0
   34.2735   40.1248   55.4904 N   0  0  0  0  0  0  0  0  0  0  0  0
   33.8613   39.7419   56.6810 C   0  0  0  0  0  0  0  0  0  0  0  0
   31.2445   33.6735   61.5315 C   0  0  0  0  0  0  0  0  0  0  0  0
   30.8240   33.2748   62.7683 C   0  0  0  0  0  0  0  0  0  0  0  0
   30.2721   31.8018   65.5386 H   0  0  0  0  0  0  0  0  0  0  0  0
   28.5508   32.0912   65.8875 H   0  0  0  0  0  0  0  0  0  0  0  0
   29.0682   31.6900   64.2323 H   0  0  0  0  0  0  0  0  0  0  0  0
   28.9486   35.9937   63.5881 H   0  0  0  0  0  0  0  0  0  0  0  0
   29.7190   36.6989   61.3765 H   0  0  0  0  0  0  0  0  0  0  0  0
   31.0704   34.7859   58.9850 H   0  0  0  0  0  0  0  0  0  0  0  0
   32.2185   36.3056   57.6352 H   0  0  0  0  0  0  0  0  0  0  0  0
   33.6632   36.4013   56.1067 H   0  0  0  0  0  0  0  0  0  0  0  0
   34.4398   37.2122   53.8920 H   0  0  0  0  0  0  0  0  0  0  0  0
   34.8263   39.6185   53.5548 H   0  0  0  0  0  0  0  0  0  0  0  0
   33.7044   40.4779   57.4556 H   0  0  0  0  0  0  0  0  0  0  0  0
   31.8848   33.0302   60.9463 H   0  0  0  0  0  0  0  0  0  0  0  0
   31.1311   32.3166   63.1610 H   0  0  0  0  0  0  0  0  0  0  0  0
  1  2  1  0  0  0  0
  1 22  1  0  0  0  0
  1 23  1  0  0  0  0
  1 24  1  0  0  0  0
  2  3  2  0  0  0  0
  2  4  1  0  0  0  0
  4 21  2  0  0  0  0
  4  5  1  0  0  0  0
  5  6  2  0  0  0  0
  5 25  1  0  0  0  0
  6  7  1  0  0  0  0
  6 26  1  0  0  0  0
  7  8  1  0  0  0  0
  7 20  2  0  0  0  0
  8  9  1  0  0  0  0
  8 27  1  0  0  0  0
  9 10  2  0  0  0  0
  9 11  1  0  0  0  0
 11 12  1  0  0  0  0
 11 28  1  0  0  0  0
 12 13  2  0  0  0  0
 12 14  1  0  0  0  0
 14 19  2  0  0  0  0
 14 15  1  0  0  0  0
 15 16  2  0  0  0  0
 15 29  1  0  0  0  0
 16 17  1  0  0  0  0
 16 30  1  0  0  0  0
 17 18  2  0  0  0  0
 17 31  1  0  0  0  0
 18 19  1  0  0  0  0
 19 32  1  0  0  0  0
 20 21  1  0  0  0  0
 20 33  1  0  0  0  0
 21 34  1  0  0  0  0
M  END
$$$$
