ZINC000000055932      none
 OpenBabel11202420153D

 32 35  0  0  0  0  0  0  0  0999 V2000
   36.4422   40.4882   50.4630 C   0  0  0  0  0  0  0  0  0  0  0  0
   36.1288   39.1373   50.8058 O   0  0  0  0  0  0  0  0  0  0  0  0
   35.5918   38.9208   52.0359 C   0  0  0  0  0  0  0  0  0  0  0  0
   35.2629   37.6325   52.4323 C   0  0  0  0  0  0  0  0  0  0  0  0
   34.7177   37.4124   53.6818 C   0  0  0  0  0  0  0  0  0  0  0  0
   34.4986   38.4803   54.5412 C   0  0  0  0  0  0  0  0  0  0  0  0
   33.9446   38.2571   55.8110 N   0  0  0  0  0  0  0  0  0  0  0  0
   33.6815   39.2148   56.7162 C   0  0  0  0  0  0  0  0  0  0  0  0
   33.8895   40.4030   56.5779 O   0  0  0  0  0  0  0  0  0  0  0  0
   33.1065   38.5648   57.9209 C   0  0  0  0  0  0  0  0  0  0  0  0
   32.4900   38.8923   59.5335 S   0  0  0  0  0  0  0  0  0  0  0  0
   32.1652   37.1791   59.7927 C   0  0  0  0  0  0  0  0  0  0  0  0
   31.6518   36.5737   60.8617 N   0  0  0  0  0  0  0  0  0  0  0  0
   31.4676   35.2627   60.9035 C   0  0  0  0  0  0  0  0  0  0  0  0
   31.8139   34.4932   59.8144 C   0  0  0  0  0  0  0  0  0  0  0  0
   32.3533   35.1247   58.6899 C   0  0  0  0  0  0  0  0  0  0  0  0
   32.6695   34.4699   57.7094 O   0  0  0  0  0  0  0  0  0  0  0  0
   32.5233   36.4783   58.6962 N   0  0  0  0  0  0  0  0  0  0  0  0
   33.0462   37.2417   57.6682 C   0  0  0  0  0  0  0  0  0  0  0  0
   33.5904   37.0568   56.2961 C   0  0  0  0  0  0  0  0  0  0  0  0
   33.6969   35.9966   55.7126 O   0  0  0  0  0  0  0  0  0  0  0  0
   34.8225   39.7696   54.1418 C   0  0  0  0  0  0  0  0  0  0  0  0
   35.3729   39.9881   52.8943 C   0  0  0  0  0  0  0  0  0  0  0  0
   36.8620   40.5200   49.4575 H   0  0  0  0  0  0  0  0  0  0  0  0
   35.5355   41.0921   50.4975 H   0  0  0  0  0  0  0  0  0  0  0  0
   37.1690   40.8830   51.1729 H   0  0  0  0  0  0  0  0  0  0  0  0
   35.4334   36.8017   51.7636 H   0  0  0  0  0  0  0  0  0  0  0  0
   34.4620   36.4096   53.9904 H   0  0  0  0  0  0  0  0  0  0  0  0
   31.0486   34.8002   61.7849 H   0  0  0  0  0  0  0  0  0  0  0  0
   31.6712   33.4228   59.8288 H   0  0  0  0  0  0  0  0  0  0  0  0
   34.6482   40.6014   54.8085 H   0  0  0  0  0  0  0  0  0  0  0  0
   35.6291   40.9906   52.5852 H   0  0  0  0  0  0  0  0  0  0  0  0
  1  2  1  0  0  0  0
  1 24  1  0  0  0  0
  1 25  1  0  0  0  0
  1 26  1  0  0  0  0
  2  3  1  0  0  0  0
  3 23  2  0  0  0  0
  3  4  1  0  0  0  0
  4  5  2  0  0  0  0
  4 27  1  0  0  0  0
  5  6  1  0  0  0  0
  5 28  1  0  0  0  0
  6  7  1  0  0  0  0
  6 22  2  0  0  0  0
  7 20  1  0  0  0  0
  7  8  1  0  0  0  0
  8  9  2  0  0  0  0
  8 10  1  0  0  0  0
 10 19  2  0  0  0  0
 10 11  1  0  0  0  0
 11 12  1  0  0  0  0
 12 18  1  0  0  0  0
 12 13  2  0  0  0  0
 13 14  1  0  0  0  0
 14 15  2  0  0  0  0
 14 29  1  0  0  0  0
 15 16  1  0  0  0  0
 15 30  1  0  0  0  0
 16 17  2  0  0  0  0
 16 18  1  0  0  0  0
 18 19  1  0  0  0  0
 19 20  1  0  0  0  0
 20 21  2  0  0  0  0
 22 23  1  0  0  0  0
 22 31  1  0  0  0  0
 23 32  1  0  0  0  0
M  END
$$$$
