ZINC000000014135      none
 OpenBabel11202420153D

 18 19  0  0  0  0  0  0  0  0999 V2000
   31.6946   38.1222   61.4018 C   0  0  0  0  0  0  0  0  0  0  0  0
   32.2162   39.0711   60.4151 N   0  0  0  0  0  0  0  0  0  0  0  0
   32.5639   38.6334   59.1536 C   0  0  0  0  0  0  0  0  0  0  0  0
   32.4680   37.4145   58.7456 N   0  0  0  0  0  0  0  0  0  0  0  0
   32.8492   37.1430   57.4826 C   0  0  0  0  0  0  0  0  0  0  0  0
   32.8455   35.9081   56.7985 C   0  0  0  0  0  0  0  0  0  0  0  0
   33.2865   35.8707   55.4935 C   0  0  0  0  0  0  0  0  0  0  0  0
   33.7213   37.0359   54.8835 C   0  0  0  0  0  0  0  0  0  0  0  0
   33.7193   38.1790   55.5339 N   0  0  0  0  0  0  0  0  0  0  0  0
   33.3049   38.2722   56.7930 C   0  0  0  0  0  0  0  0  0  0  0  0
   33.2014   39.6591   57.8762 S   0  0  0  0  0  0  0  0  0  0  0  0
   32.4373   37.3463   61.5877 H   0  0  0  0  0  0  0  0  0  0  0  0
   31.4775   38.6476   62.3318 H   0  0  0  0  0  0  0  0  0  0  0  0
   30.7809   37.6666   61.0201 H   0  0  0  0  0  0  0  0  0  0  0  0
   32.3172   40.0071   60.6485 H   0  0  0  0  0  0  0  0  0  0  0  0
   32.4990   35.0097   57.2877 H   0  0  0  0  0  0  0  0  0  0  0  0
   33.2928   34.9380   54.9491 H   0  0  0  0  0  0  0  0  0  0  0  0
   34.0667   37.0053   53.8607 H   0  0  0  0  0  0  0  0  0  0  0  0
  1  2  1  0  0  0  0
  1 12  1  0  0  0  0
  1 13  1  0  0  0  0
  1 14  1  0  0  0  0
  2  3  1  0  0  0  0
  2 15  1  0  0  0  0
  3 11  1  0  0  0  0
  3  4  2  0  0  0  0
  4  5  1  0  0  0  0
  5 10  2  0  0  0  0
  5  6  1  0  0  0  0
  6  7  2  0  0  0  0
  6 16  1  0  0  0  0
  7  8  1  0  0  0  0
  7 17  1  0  0  0  0
  8  9  2  0  0  0  0
  8 18  1  0  0  0  0
  9 10  1  0  0  0  0
 10 11  1  0  0  0  0
M  END
$$$$
