ZINC000000004424      none
 OpenBabel11202420153D

 20 22  0  0  0  0  0  0  0  0999 V2000
   33.9602   32.4058   53.6561 C   0  0  0  0  0  0  0  0  0  0  0  0
   35.0242   31.9506   54.3266 C   0  0  0  0  0  0  0  0  0  0  0  0
   35.4530   33.0757   55.6080 S   0  0  0  0  0  0  0  0  0  0  0  0
   34.1329   34.1461   55.1550 C   0  0  0  0  0  0  0  0  0  0  0  0
   33.8041   35.4157   55.8155 C   0  0  0  0  0  0  0  0  0  0  0  0
   32.9595   35.5692   56.8701 C   0  0  0  0  0  0  0  0  0  0  0  0
   32.9177   36.9467   57.2053 C   0  0  0  0  0  0  0  0  0  0  0  0
   32.3900   37.8359   58.0273 N   0  0  0  0  0  0  0  0  0  0  0  0
   32.8535   39.0541   57.7181 C   0  0  0  0  0  0  0  0  0  0  0  0
   33.6967   38.9397   56.6733 C   0  0  0  0  0  0  0  0  0  0  0  0
   33.7459   37.6094   56.3390 N   0  0  0  0  0  0  0  0  0  0  0  0
   34.3070   36.6642   55.4738 N   0  0  0  0  0  0  0  0  0  0  0  0
   34.9360   36.8489   54.7588 H   0  0  0  0  0  0  0  0  0  0  0  0
   33.4625   33.6120   54.0948 C   0  0  0  0  0  0  0  0  0  0  0  0
   33.5245   31.8673   52.8274 H   0  0  0  0  0  0  0  0  0  0  0  0
   35.5415   31.0265   54.1147 H   0  0  0  0  0  0  0  0  0  0  0  0
   32.4147   34.7793   57.3660 H   0  0  0  0  0  0  0  0  0  0  0  0
   32.5948   39.9737   58.2218 H   0  0  0  0  0  0  0  0  0  0  0  0
   34.2327   39.7432   56.1900 H   0  0  0  0  0  0  0  0  0  0  0  0
   32.6091   34.0929   53.6402 H   0  0  0  0  0  0  0  0  0  0  0  0
  1 14  1  0  0  0  0
  1  2  2  0  0  0  0
  1 15  1  0  0  0  0
  2  3  1  0  0  0  0
  2 16  1  0  0  0  0
  3  4  1  0  0  0  0
  4  5  1  0  0  0  0
  4 14  2  0  0  0  0
  5 12  1  0  0  0  0
  5  6  2  0  0  0  0
  6  7  1  0  0  0  0
  6 17  1  0  0  0  0
  7 11  1  0  0  0  0
  7  8  2  0  0  0  0
  8  9  1  0  0  0  0
  9 10  2  0  0  0  0
  9 18  1  0  0  0  0
 10 11  1  0  0  0  0
 10 19  1  0  0  0  0
 11 12  1  0  0  0  0
 12 13  1  0  0  0  0
 14 20  1  0  0  0  0
M  END
$$$$
