ZINC000000047370      none
 OpenBabel11202420153D

 28 28  0  0  0  0  0  0  0  0999 V2000
   32.5499   36.6831   64.7371 C   0  0  0  0  0  0  0  0  0  0  0  0
   31.4634   36.4117   63.6946 C   0  0  0  0  0  0  0  0  0  0  0  0
   32.0705   35.8652   62.4940 O   0  0  0  0  0  0  0  0  0  0  0  0
   31.2436   35.5684   61.4705 C   0  0  0  0  0  0  0  0  0  0  0  0
   30.0474   35.7615   61.5793 O   0  0  0  0  0  0  0  0  0  0  0  0
   31.7852   35.0142   60.2297 C   0  0  0  0  0  0  0  0  0  0  0  0
   31.9039   33.6193   60.0742 C   0  0  0  0  0  0  0  0  0  0  0  0
   31.1730   32.9207   58.9567 C   0  0  0  0  0  0  0  0  0  0  0  0
   32.5957   32.9794   60.8410 O   0  0  0  0  0  0  0  0  0  0  0  0
   32.1814   35.8724   59.1918 C   0  0  0  0  0  0  0  0  0  0  0  0
   32.6956   35.4334   58.0202 N   0  0  0  0  0  0  0  0  0  0  0  0
   32.9978   36.5891   57.1637 C   0  0  0  0  0  0  0  0  0  0  0  0
   32.5900   37.8065   58.0146 C   0  0  0  0  0  0  0  0  0  0  0  0
   32.0919   37.2201   59.2671 N   0  0  0  0  0  0  0  0  0  0  0  0
   33.2682   37.3979   64.3354 H   0  0  0  0  0  0  0  0  0  0  0  0
   32.0943   37.0934   65.6383 H   0  0  0  0  0  0  0  0  0  0  0  0
   33.0611   35.7517   64.9801 H   0  0  0  0  0  0  0  0  0  0  0  0
   30.9521   37.3431   63.4516 H   0  0  0  0  0  0  0  0  0  0  0  0
   30.7450   35.6968   64.0962 H   0  0  0  0  0  0  0  0  0  0  0  0
   31.7668   32.9752   58.0443 H   0  0  0  0  0  0  0  0  0  0  0  0
   31.0131   31.8762   59.2243 H   0  0  0  0  0  0  0  0  0  0  0  0
   30.2105   33.4054   58.7932 H   0  0  0  0  0  0  0  0  0  0  0  0
   32.8396   34.5040   57.7823 H   0  0  0  0  0  0  0  0  0  0  0  0
   32.4113   36.5516   56.2457 H   0  0  0  0  0  0  0  0  0  0  0  0
   34.0632   36.6227   56.9358 H   0  0  0  0  0  0  0  0  0  0  0  0
   31.8014   38.3720   57.5181 H   0  0  0  0  0  0  0  0  0  0  0  0
   33.4518   38.4450   58.2084 H   0  0  0  0  0  0  0  0  0  0  0  0
   31.7535   37.7197   60.0265 H   0  0  0  0  0  0  0  0  0  0  0  0
  1  2  1  0  0  0  0
  1 15  1  0  0  0  0
  1 16  1  0  0  0  0
  1 17  1  0  0  0  0
  2  3  1  0  0  0  0
  2 18  1  0  0  0  0
  2 19  1  0  0  0  0
  3  4  1  0  0  0  0
  4  5  2  0  0  0  0
  4  6  1  0  0  0  0
  6  7  1  0  0  0  0
  6 10  2  0  0  0  0
  7  8  1  0  0  0  0
  7  9  2  0  0  0  0
  8 20  1  0  0  0  0
  8 21  1  0  0  0  0
  8 22  1  0  0  0  0
 10 14  1  0  0  0  0
 10 11  1  0  0  0  0
 11 12  1  0  0  0  0
 11 23  1  0  0  0  0
 12 13  1  0  0  0  0
 12 24  1  0  0  0  0
 12 25  1  0  0  0  0
 13 14  1  0  0  0  0
 13 26  1  0  0  0  0
 13 27  1  0  0  0  0
 14 28  1  0  0  0  0
M  END
$$$$
