ZINC000000037812      none
 OpenBabel11202420153D

 30 31  0  0  0  0  0  0  0  0999 V2000
   31.9315   35.9464   62.6874 C   0  0  0  0  0  0  0  0  0  0  0  0
   32.4531   35.8483   61.3607 O   0  0  0  0  0  0  0  0  0  0  0  0
   31.7730   36.4873   60.3861 C   0  0  0  0  0  0  0  0  0  0  0  0
   30.7638   37.1109   60.6570 O   0  0  0  0  0  0  0  0  0  0  0  0
   32.2332   36.4323   59.0488 C   0  0  0  0  0  0  0  0  0  0  0  0
   32.4044   35.3294   58.2967 C   0  0  0  0  0  0  0  0  0  0  0  0
   32.1221   33.9301   58.7798 C   0  0  0  0  0  0  0  0  0  0  0  0
   32.8595   35.6253   57.0446 N   0  0  0  0  0  0  0  0  0  0  0  0
   33.1183   34.6636   56.0594 C   0  0  0  0  0  0  0  0  0  0  0  0
   32.4281   34.6987   54.8547 C   0  0  0  0  0  0  0  0  0  0  0  0
   32.6883   33.7523   53.8831 C   0  0  0  0  0  0  0  0  0  0  0  0
   33.6276   32.7638   54.1124 C   0  0  0  0  0  0  0  0  0  0  0  0
   34.3136   32.7226   55.3134 C   0  0  0  0  0  0  0  0  0  0  0  0
   35.4925   31.4802   55.5972 Cl  0  0  0  0  0  0  0  0  0  0  0  0
   34.0609   33.6704   56.2877 C   0  0  0  0  0  0  0  0  0  0  0  0
   33.0369   36.9483   56.8680 C   0  0  0  0  0  0  0  0  0  0  0  0
   33.4343   37.5034   55.8660 O   0  0  0  0  0  0  0  0  0  0  0  0
   32.6393   37.6031   58.1760 C   0  0  0  0  0  0  0  0  0  0  0  0
   30.9238   35.5316   62.7132 H   0  0  0  0  0  0  0  0  0  0  0  0
   32.5714   35.3892   63.3716 H   0  0  0  0  0  0  0  0  0  0  0  0
   31.9013   36.9934   62.9894 H   0  0  0  0  0  0  0  0  0  0  0  0
   31.7336   33.9686   59.7975 H   0  0  0  0  0  0  0  0  0  0  0  0
   31.3853   33.4621   58.1269 H   0  0  0  0  0  0  0  0  0  0  0  0
   33.0433   33.3477   58.7643 H   0  0  0  0  0  0  0  0  0  0  0  0
   31.6911   35.4676   54.6765 H   0  0  0  0  0  0  0  0  0  0  0  0
   32.1546   33.7820   52.9447 H   0  0  0  0  0  0  0  0  0  0  0  0
   33.8261   32.0222   53.3526 H   0  0  0  0  0  0  0  0  0  0  0  0
   34.5960   33.6381   57.2252 H   0  0  0  0  0  0  0  0  0  0  0  0
   31.7983   38.2801   58.0262 H   0  0  0  0  0  0  0  0  0  0  0  0
   33.4860   38.1322   58.6132 H   0  0  0  0  0  0  0  0  0  0  0  0
  1  2  1  0  0  0  0
  1 19  1  0  0  0  0
  1 20  1  0  0  0  0
  1 21  1  0  0  0  0
  2  3  1  0  0  0  0
  3  4  2  0  0  0  0
  3  5  1  0  0  0  0
  5 18  1  0  0  0  0
  5  6  2  0  0  0  0
  6  7  1  0  0  0  0
  6  8  1  0  0  0  0
  7 22  1  0  0  0  0
  7 23  1  0  0  0  0
  7 24  1  0  0  0  0
  8  9  1  0  0  0  0
  8 16  1  0  0  0  0
  9 15  2  0  0  0  0
  9 10  1  0  0  0  0
 10 11  2  0  0  0  0
 10 25  1  0  0  0  0
 11 12  1  0  0  0  0
 11 26  1  0  0  0  0
 12 13  2  0  0  0  0
 12 27  1  0  0  0  0
 13 14  1  0  0  0  0
 13 15  1  0  0  0  0
 15 28  1  0  0  0  0
 16 17  2  0  0  0  0
 16 18  1  0  0  0  0
 18 29  1  0  0  0  0
 18 30  1  0  0  0  0
M  END
$$$$
