ZINC000000051410      none
 OpenBabel11202420153D

 28 30  0  0  0  0  0  0  0  0999 V2000
   30.4871   39.0171   61.7479 O   0  0  0  0  0  0  0  0  0  0  0  0
   30.7917   37.6368   61.6019 S   0  0  0  0  0  0  0  0  0  0  0  0
   29.8023   36.6169   61.6153 O   0  0  0  0  0  0  0  0  0  0  0  0
   31.6514   37.4760   60.0723 C   0  0  0  0  0  0  0  0  0  0  0  0
   32.3166   38.5623   59.5359 C   0  0  0  0  0  0  0  0  0  0  0  0
   32.9920   38.4360   58.3353 C   0  0  0  0  0  0  0  0  0  0  0  0
   33.8215   39.8023   57.6580 Cl  0  0  0  0  0  0  0  0  0  0  0  0
   33.0016   37.2220   57.6713 C   0  0  0  0  0  0  0  0  0  0  0  0
   32.3366   36.1359   58.2076 C   0  0  0  0  0  0  0  0  0  0  0  0
   31.6610   36.2623   59.4086 C   0  0  0  0  0  0  0  0  0  0  0  0
   30.8261   34.8978   60.0826 Cl  0  0  0  0  0  0  0  0  0  0  0  0
   31.8634   37.2643   62.8082 N   0  0  0  0  0  0  0  0  0  0  0  0
   32.8337   36.3121   62.7588 C   0  0  0  0  0  0  0  0  0  0  0  0
   33.4957   36.2900   63.8788 N   0  0  0  0  0  0  0  0  0  0  0  0
   32.9883   37.2206   64.7274 C   0  0  0  0  0  0  0  0  0  0  0  0
   33.3066   37.6118   66.0306 C   0  0  0  0  0  0  0  0  0  0  0  0
   32.5935   38.6076   66.6357 C   0  0  0  0  0  0  0  0  0  0  0  0
   31.5519   39.2377   65.9694 C   0  0  0  0  0  0  0  0  0  0  0  0
   31.2201   38.8682   64.6834 C   0  0  0  0  0  0  0  0  0  0  0  0
   31.9340   37.8585   64.0522 C   0  0  0  0  0  0  0  0  0  0  0  0
   32.3094   39.5098   60.0542 H   0  0  0  0  0  0  0  0  0  0  0  0
   33.5285   37.1234   56.7338 H   0  0  0  0  0  0  0  0  0  0  0  0
   32.3445   35.1883   57.6895 H   0  0  0  0  0  0  0  0  0  0  0  0
   33.0281   35.6700   61.9124 H   0  0  0  0  0  0  0  0  0  0  0  0
   34.1148   37.1278   66.5585 H   0  0  0  0  0  0  0  0  0  0  0  0
   32.8425   38.9072   67.6430 H   0  0  0  0  0  0  0  0  0  0  0  0
   30.9973   40.0229   66.4616 H   0  0  0  0  0  0  0  0  0  0  0  0
   30.4090   39.3621   64.1691 H   0  0  0  0  0  0  0  0  0  0  0  0
  1  2  2  0  0  0  0
  2  3  2  0  0  0  0
  2  4  1  0  0  0  0
  2 12  1  0  0  0  0
  4 10  2  0  0  0  0
  4  5  1  0  0  0  0
  5  6  2  0  0  0  0
  5 21  1  0  0  0  0
  6  7  1  0  0  0  0
  6  8  1  0  0  0  0
  8  9  2  0  0  0  0
  8 22  1  0  0  0  0
  9 10  1  0  0  0  0
  9 23  1  0  0  0  0
 10 11  1  0  0  0  0
 12 20  1  0  0  0  0
 12 13  1  0  0  0  0
 13 14  2  0  0  0  0
 13 24  1  0  0  0  0
 14 15  1  0  0  0  0
 15 20  2  0  0  0  0
 15 16  1  0  0  0  0
 16 17  2  0  0  0  0
 16 25  1  0  0  0  0
 17 18  1  0  0  0  0
 17 26  1  0  0  0  0
 18 19  2  0  0  0  0
 18 27  1  0  0  0  0
 19 20  1  0  0  0  0
 19 28  1  0  0  0  0
M  END
$$$$
