ZINC000000030097      none
 OpenBabel11202420163D

 39 41  0  0  0  0  0  0  0  0999 V2000
   29.4095   39.0240   63.2721 C   0  0  0  0  0  0  0  0  0  0  0  0
   29.4851   37.5211   63.3532 C   0  0  0  0  0  0  0  0  0  0  0  0
   29.3785   36.9677   64.4220 O   0  0  0  0  0  0  0  0  0  0  0  0
   29.6708   36.7969   62.2375 O   0  0  0  0  0  0  0  0  0  0  0  0
   30.3318   35.6190   62.3706 C   0  0  0  0  0  0  0  0  0  0  0  0
   29.8248   34.6250   63.1939 C   0  0  0  0  0  0  0  0  0  0  0  0
   30.5017   33.4296   63.3337 C   0  0  0  0  0  0  0  0  0  0  0  0
   31.6857   33.2107   62.6485 C   0  0  0  0  0  0  0  0  0  0  0  0
   32.2007   34.1853   61.8213 C   0  0  0  0  0  0  0  0  0  0  0  0
   31.5263   35.3995   61.6717 C   0  0  0  0  0  0  0  0  0  0  0  0
   32.0720   36.4472   60.7876 C   0  0  0  0  0  0  0  0  0  0  0  0
   32.3635   37.5361   61.2434 O   0  0  0  0  0  0  0  0  0  0  0  0
   32.2474   36.1972   59.4749 N   0  0  0  0  0  0  0  0  0  0  0  0
   31.8987   34.8859   58.9113 C   0  0  0  0  0  0  0  0  0  0  0  0
   33.0410   34.4567   57.9812 C   0  0  0  0  0  0  0  0  0  0  0  0
   33.1384   35.4532   56.8262 C   0  0  0  0  0  0  0  0  0  0  0  0
   33.2051   36.8633   57.3507 C   0  0  0  0  0  0  0  0  0  0  0  0
   33.7128   37.8591   56.5327 C   0  0  0  0  0  0  0  0  0  0  0  0
   33.7877   39.1620   56.9852 C   0  0  0  0  0  0  0  0  0  0  0  0
   33.3464   39.4827   58.2561 C   0  0  0  0  0  0  0  0  0  0  0  0
   32.8359   38.4969   59.0764 C   0  0  0  0  0  0  0  0  0  0  0  0
   32.7647   37.1836   58.6251 C   0  0  0  0  0  0  0  0  0  0  0  0
   29.5255   39.3382   62.2348 H   0  0  0  0  0  0  0  0  0  0  0  0
   28.4428   39.3600   63.6474 H   0  0  0  0  0  0  0  0  0  0  0  0
   30.2052   39.4610   63.8753 H   0  0  0  0  0  0  0  0  0  0  0  0
   28.9020   34.7882   63.7309 H   0  0  0  0  0  0  0  0  0  0  0  0
   30.1049   32.6602   63.9794 H   0  0  0  0  0  0  0  0  0  0  0  0
   32.2075   32.2721   62.7633 H   0  0  0  0  0  0  0  0  0  0  0  0
   33.1243   34.0106   61.2897 H   0  0  0  0  0  0  0  0  0  0  0  0
   31.7831   34.1579   59.7142 H   0  0  0  0  0  0  0  0  0  0  0  0
   30.9700   34.9622   58.3459 H   0  0  0  0  0  0  0  0  0  0  0  0
   33.9795   34.4474   58.5355 H   0  0  0  0  0  0  0  0  0  0  0  0
   32.8383   33.4598   57.5898 H   0  0  0  0  0  0  0  0  0  0  0  0
   34.0357   35.2429   56.2443 H   0  0  0  0  0  0  0  0  0  0  0  0
   32.2620   35.3491   56.1864 H   0  0  0  0  0  0  0  0  0  0  0  0
   34.0555   37.6150   55.5380 H   0  0  0  0  0  0  0  0  0  0  0  0
   34.1877   39.9330   56.3433 H   0  0  0  0  0  0  0  0  0  0  0  0
   33.4014   40.5028   58.6063 H   0  0  0  0  0  0  0  0  0  0  0  0
   32.4915   38.7458   60.0693 H   0  0  0  0  0  0  0  0  0  0  0  0
  1  2  1  0  0  0  0
  1 23  1  0  0  0  0
  1 24  1  0  0  0  0
  1 25  1  0  0  0  0
  2  3  2  0  0  0  0
  2  4  1  0  0  0  0
  4  5  1  0  0  0  0
  5 10  2  0  0  0  0
  5  6  1  0  0  0  0
  6  7  2  0  0  0  0
  6 26  1  0  0  0  0
  7  8  1  0  0  0  0
  7 27  1  0  0  0  0
  8  9  2  0  0  0  0
  8 28  1  0  0  0  0
  9 10  1  0  0  0  0
  9 29  1  0  0  0  0
 10 11  1  0  0  0  0
 11 12  2  0  0  0  0
 11 13  1  0  0  0  0
 13 22  1  0  0  0  0
 13 14  1  0  0  0  0
 14 15  1  0  0  0  0
 14 30  1  0  0  0  0
 14 31  1  0  0  0  0
 15 16  1  0  0  0  0
 15 32  1  0  0  0  0
 15 33  1  0  0  0  0
 16 17  1  0  0  0  0
 16 34  1  0  0  0  0
 16 35  1  0  0  0  0
 17 22  2  0  0  0  0
 17 18  1  0  0  0  0
 18 19  2  0  0  0  0
 18 36  1  0  0  0  0
 19 20  1  0  0  0  0
 19 37  1  0  0  0  0
 20 21  2  0  0  0  0
 20 38  1  0  0  0  0
 21 22  1  0  0  0  0
 21 39  1  0  0  0  0
M  END
$$$$
