ZINC000000030082      none
 OpenBabel11202420163D

 29 30  0  0  0  0  0  0  0  0999 V2000
   33.5650   33.3084   53.5834 C   0  0  0  0  0  0  0  0  0  0  0  0
   33.1806   33.6953   54.9882 C   0  0  0  0  0  0  0  0  0  0  0  0
   32.7636   32.8544   55.7563 O   0  0  0  0  0  0  0  0  0  0  0  0
   33.3001   34.9760   55.3911 N   0  0  0  0  0  0  0  0  0  0  0  0
   32.9445   35.3339   56.6910 C   0  0  0  0  0  0  0  0  0  0  0  0
   33.0630   36.6573   57.1036 C   0  0  0  0  0  0  0  0  0  0  0  0
   32.7173   37.0131   58.3878 C   0  0  0  0  0  0  0  0  0  0  0  0
   32.2369   36.0452   59.2740 C   0  0  0  0  0  0  0  0  0  0  0  0
   31.8596   36.4242   60.6497 C   0  0  0  0  0  0  0  0  0  0  0  0
   31.0234   35.7776   61.2507 O   0  0  0  0  0  0  0  0  0  0  0  0
   32.4417   37.4871   61.2396 N   0  0  0  0  0  0  0  0  0  0  0  0
   32.0833   37.8468   62.5454 N   0  0  0  0  0  0  0  0  0  0  0  0
   31.1007   38.7036   62.9142 C   0  0  0  0  0  0  0  0  0  0  0  0
   31.0984   38.7535   64.2185 N   0  0  0  0  0  0  0  0  0  0  0  0
   32.0228   37.9896   64.6826 N   0  0  0  0  0  0  0  0  0  0  0  0
   32.6531   37.4129   63.6957 C   0  0  0  0  0  0  0  0  0  0  0  0
   32.1141   34.7178   58.8547 C   0  0  0  0  0  0  0  0  0  0  0  0
   32.4665   34.3678   57.5708 C   0  0  0  0  0  0  0  0  0  0  0  0
   34.6173   33.5394   53.4179 H   0  0  0  0  0  0  0  0  0  0  0  0
   33.4011   32.2401   53.4431 H   0  0  0  0  0  0  0  0  0  0  0  0
   32.9546   33.8660   52.8730 H   0  0  0  0  0  0  0  0  0  0  0  0
   33.6336   35.6485   54.7768 H   0  0  0  0  0  0  0  0  0  0  0  0
   33.4304   37.4056   56.4169 H   0  0  0  0  0  0  0  0  0  0  0  0
   32.8130   38.0400   58.7086 H   0  0  0  0  0  0  0  0  0  0  0  0
   33.1087   38.0029   60.7601 H   0  0  0  0  0  0  0  0  0  0  0  0
   30.4402   39.2434   62.2518 H   0  0  0  0  0  0  0  0  0  0  0  0
   33.4765   36.7193   63.7802 H   0  0  0  0  0  0  0  0  0  0  0  0
   31.7429   33.9675   59.5371 H   0  0  0  0  0  0  0  0  0  0  0  0
   32.3716   33.3421   57.2460 H   0  0  0  0  0  0  0  0  0  0  0  0
  1  2  1  0  0  0  0
  1 19  1  0  0  0  0
  1 20  1  0  0  0  0
  1 21  1  0  0  0  0
  2  3  2  0  0  0  0
  2  4  1  0  0  0  0
  4  5  1  0  0  0  0
  4 22  1  0  0  0  0
  5 18  2  0  0  0  0
  5  6  1  0  0  0  0
  6  7  2  0  0  0  0
  6 23  1  0  0  0  0
  7  8  1  0  0  0  0
  7 24  1  0  0  0  0
  8  9  1  0  0  0  0
  8 17  2  0  0  0  0
  9 10  2  0  0  0  0
  9 11  1  0  0  0  0
 11 12  1  0  0  0  0
 11 25  1  0  0  0  0
 12 16  1  0  0  0  0
 12 13  1  0  0  0  0
 13 14  2  0  0  0  0
 13 26  1  0  0  0  0
 14 15  1  0  0  0  0
 15 16  2  0  0  0  0
 16 27  1  0  0  0  0
 17 18  1  0  0  0  0
 17 28  1  0  0  0  0
 18 29  1  0  0  0  0
M  END
$$$$
