ZINC000000020049      none
 OpenBabel11202420153D

 30 32  0  0  0  0  0  0  0  0999 V2000
   31.6122   34.3549   61.0123 C   0  0  0  0  0  0  0  0  0  0  0  0
   32.1287   34.7138   59.6428 C   0  0  0  0  0  0  0  0  0  0  0  0
   32.3668   33.8655   58.6846 N   0  0  0  0  0  0  0  0  0  0  0  0
   32.8205   34.5386   57.6071 C   0  0  0  0  0  0  0  0  0  0  0  0
   33.2120   33.9539   56.3034 C   0  0  0  0  0  0  0  0  0  0  0  0
   34.5302   33.5556   56.0823 C   0  0  0  0  0  0  0  0  0  0  0  0
   34.8901   33.0170   54.8640 C   0  0  0  0  0  0  0  0  0  0  0  0
   33.9463   32.8715   53.8630 C   0  0  0  0  0  0  0  0  0  0  0  0
   32.6373   33.2651   54.0762 C   0  0  0  0  0  0  0  0  0  0  0  0
   32.2653   33.8049   55.2903 C   0  0  0  0  0  0  0  0  0  0  0  0
   32.8449   35.8761   57.9478 C   0  0  0  0  0  0  0  0  0  0  0  0
   33.2649   36.9983   57.0878 C   0  0  0  0  0  0  0  0  0  0  0  0
   33.2355   38.3179   57.5595 C   0  0  0  0  0  0  0  0  0  0  0  0
   33.6429   39.3351   56.7232 C   0  0  0  0  0  0  0  0  0  0  0  0
   34.0449   39.0809   55.4920 N   0  0  0  0  0  0  0  0  0  0  0  0
   34.0827   37.8544   55.0057 C   0  0  0  0  0  0  0  0  0  0  0  0
   33.6993   36.7760   55.7739 C   0  0  0  0  0  0  0  0  0  0  0  0
   32.4078   35.9548   59.2240 O   0  0  0  0  0  0  0  0  0  0  0  0
   31.5011   35.2609   61.6077 H   0  0  0  0  0  0  0  0  0  0  0  0
   30.6451   33.8611   60.9179 H   0  0  0  0  0  0  0  0  0  0  0  0
   32.3170   33.6826   61.5017 H   0  0  0  0  0  0  0  0  0  0  0  0
   35.2678   33.6688   56.8631 H   0  0  0  0  0  0  0  0  0  0  0  0
   35.9105   32.7078   54.6918 H   0  0  0  0  0  0  0  0  0  0  0  0
   34.2326   32.4491   52.9112 H   0  0  0  0  0  0  0  0  0  0  0  0
   31.9050   33.1493   53.2909 H   0  0  0  0  0  0  0  0  0  0  0  0
   31.2430   34.1114   55.4558 H   0  0  0  0  0  0  0  0  0  0  0  0
   32.9034   38.5338   58.5642 H   0  0  0  0  0  0  0  0  0  0  0  0
   33.6285   40.3548   57.0788 H   0  0  0  0  0  0  0  0  0  0  0  0
   34.4189   37.6935   53.9921 H   0  0  0  0  0  0  0  0  0  0  0  0
   33.7328   35.7751   55.3694 H   0  0  0  0  0  0  0  0  0  0  0  0
  1  2  1  0  0  0  0
  1 19  1  0  0  0  0
  1 20  1  0  0  0  0
  1 21  1  0  0  0  0
  2 18  1  0  0  0  0
  2  3  2  0  0  0  0
  3  4  1  0  0  0  0
  4  5  1  0  0  0  0
  4 11  2  0  0  0  0
  5 10  2  0  0  0  0
  5  6  1  0  0  0  0
  6  7  2  0  0  0  0
  6 22  1  0  0  0  0
  7  8  1  0  0  0  0
  7 23  1  0  0  0  0
  8  9  2  0  0  0  0
  8 24  1  0  0  0  0
  9 10  1  0  0  0  0
  9 25  1  0  0  0  0
 10 26  1  0  0  0  0
 11 12  1  0  0  0  0
 11 18  1  0  0  0  0
 12 17  2  0  0  0  0
 12 13  1  0  0  0  0
 13 14  2  0  0  0  0
 13 27  1  0  0  0  0
 14 15  1  0  0  0  0
 14 28  1  0  0  0  0
 15 16  2  0  0  0  0
 16 17  1  0  0  0  0
 16 29  1  0  0  0  0
 17 30  1  0  0  0  0
M  END
$$$$
