ZINC000000005081      none
 OpenBabel11202420153D

 36 38  0  0  0  0  0  0  0  0999 V2000
   34.8310   32.2923   54.4518 C   0  0  0  0  0  0  0  0  0  0  0  0
   34.4356   33.5965   55.0949 C   0  0  0  0  0  0  0  0  0  0  0  0
   34.8573   34.8023   54.7297 C   0  0  0  0  0  0  0  0  0  0  0  0
   34.2684   35.7408   55.5629 N   0  0  0  0  0  0  0  0  0  0  0  0
   34.3682   37.0874   55.6074 C   0  0  0  0  0  0  0  0  0  0  0  0
   35.0819   37.6864   54.8200 O   0  0  0  0  0  0  0  0  0  0  0  0
   33.6326   37.7846   56.5889 C   0  0  0  0  0  0  0  0  0  0  0  0
   33.4954   39.0935   56.9152 N   0  0  0  0  0  0  0  0  0  0  0  0
   32.6794   39.2041   57.9219 C   0  0  0  0  0  0  0  0  0  0  0  0
   32.2420   37.9680   58.3027 N   0  0  0  0  0  0  0  0  0  0  0  0
   31.3128   37.6769   59.3973 C   0  0  0  0  0  0  0  0  0  0  0  0
   32.0483   37.4780   60.6062 O   0  0  0  0  0  0  0  0  0  0  0  0
   31.3292   36.7626   61.6128 C   0  0  0  0  0  0  0  0  0  0  0  0
   32.3157   36.1772   62.6253 C   0  0  0  0  0  0  0  0  0  0  0  0
   33.0595   37.2355   63.2325 O   0  0  0  0  0  0  0  0  0  0  0  0
   30.3694   37.7154   62.3282 C   0  0  0  0  0  0  0  0  0  0  0  0
   29.6504   37.0000   63.3349 O   0  0  0  0  0  0  0  0  0  0  0  0
   32.8310   37.0496   57.4734 C   0  0  0  0  0  0  0  0  0  0  0  0
   32.7808   35.7205   57.3714 N   0  0  0  0  0  0  0  0  0  0  0  0
   33.4739   35.0770   56.4487 C   0  0  0  0  0  0  0  0  0  0  0  0
   33.5722   33.7414   56.1646 N   0  0  0  0  0  0  0  0  0  0  0  0
   33.1162   33.0237   56.6311 H   0  0  0  0  0  0  0  0  0  0  0  0
   35.7184   31.8975   54.9466 H   0  0  0  0  0  0  0  0  0  0  0  0
   34.0135   31.5776   54.5473 H   0  0  0  0  0  0  0  0  0  0  0  0
   35.0470   32.4583   53.3964 H   0  0  0  0  0  0  0  0  0  0  0  0
   35.5416   35.0150   53.9216 H   0  0  0  0  0  0  0  0  0  0  0  0
   32.3910   40.1348   58.3875 H   0  0  0  0  0  0  0  0  0  0  0  0
   30.6260   38.5140   59.5233 H   0  0  0  0  0  0  0  0  0  0  0  0
   30.7472   36.7749   59.1634 H   0  0  0  0  0  0  0  0  0  0  0  0
   30.7619   35.9553   61.1498 H   0  0  0  0  0  0  0  0  0  0  0  0
   31.7673   35.6315   63.3932 H   0  0  0  0  0  0  0  0  0  0  0  0
   32.9995   35.4984   62.1156 H   0  0  0  0  0  0  0  0  0  0  0  0
   32.5137   37.8790   63.7050 H   0  0  0  0  0  0  0  0  0  0  0  0
   30.9367   38.5227   62.7915 H   0  0  0  0  0  0  0  0  0  0  0  0
   29.6667   38.1324   61.6070 H   0  0  0  0  0  0  0  0  0  0  0  0
   30.2138   36.6009   64.0121 H   0  0  0  0  0  0  0  0  0  0  0  0
  1  2  1  0  0  0  0
  1 23  1  0  0  0  0
  1 24  1  0  0  0  0
  1 25  1  0  0  0  0
  2 21  1  0  0  0  0
  2  3  2  0  0  0  0
  3  4  1  0  0  0  0
  3 26  1  0  0  0  0
  4 20  1  0  0  0  0
  4  5  1  0  0  0  0
  5  6  2  0  0  0  0
  5  7  1  0  0  0  0
  7 18  2  0  0  0  0
  7  8  1  0  0  0  0
  8  9  2  0  0  0  0
  9 10  1  0  0  0  0
  9 27  1  0  0  0  0
 10 11  1  0  0  0  0
 10 18  1  0  0  0  0
 11 12  1  0  0  0  0
 11 28  1  0  0  0  0
 11 29  1  0  0  0  0
 12 13  1  0  0  0  0
 13 14  1  0  0  0  0
 13 16  1  0  0  0  0
 13 30  1  0  0  0  0
 14 15  1  0  0  0  0
 14 31  1  0  0  0  0
 14 32  1  0  0  0  0
 15 33  1  0  0  0  0
 16 17  1  0  0  0  0
 16 34  1  0  0  0  0
 16 35  1  0  0  0  0
 17 36  1  0  0  0  0
 18 19  1  0  0  0  0
 19 20  2  0  0  0  0
 20 21  1  0  0  0  0
 21 22  1  0  0  0  0
M  END
$$$$
