ZINC000000044233      none
 OpenBabel11202420153D

 38 40  0  0  1  0  0  0  0  0999 V2000
   32.0902   37.4269   64.6203 C   0  0  0  0  0  0  0  0  0  0  0  0
   32.1246   36.5330   63.4075 C   0  0  0  0  0  0  0  0  0  0  0  0
   33.1765   36.2886   62.8672 O   0  0  0  0  0  0  0  0  0  0  0  0
   30.8462   35.9444   62.8687 C   0  0  1  0  0  0  0  0  0  0  0  0
   31.0580   34.9837   62.3992 H   0  0  0  0  0  0  0  0  0  0  0  0
   29.8689   35.7466   63.9988 C   0  0  0  0  0  0  0  0  0  0  0  0
   29.5001   36.6974   64.6547 O   0  0  0  0  0  0  0  0  0  0  0  0
   29.3622   34.3996   64.3060 C   0  0  0  0  0  0  0  0  0  0  0  0
   28.0865   34.2370   64.8557 C   0  0  0  0  0  0  0  0  0  0  0  0
   27.6164   32.9710   65.1350 C   0  0  0  0  0  0  0  0  0  0  0  0
   28.4082   31.8640   64.8839 C   0  0  0  0  0  0  0  0  0  0  0  0
   29.6741   32.0171   64.3459 C   0  0  0  0  0  0  0  0  0  0  0  0
   30.1561   33.2759   64.0553 C   0  0  0  0  0  0  0  0  0  0  0  0
   30.2431   36.8960   61.8335 C   0  0  1  0  0  0  0  0  0  0  0  0
   28.9966   36.3894   61.3521 O   0  0  0  0  0  0  0  0  0  0  0  0
   30.0610   38.2775   62.4255 C   0  0  0  0  0  0  0  0  0  0  0  0
   29.3639   38.5685   63.3744 O   0  0  0  0  0  0  0  0  0  0  0  0
   30.8176   39.1203   61.7026 N   0  0  0  0  0  0  0  0  0  0  0  0
   31.5014   38.4681   60.6759 C   0  0  0  0  0  0  0  0  0  0  0  0
   32.3784   38.9585   59.7101 C   0  0  0  0  0  0  0  0  0  0  0  0
   32.9385   38.1023   58.7849 C   0  0  0  0  0  0  0  0  0  0  0  0
   32.6401   36.7521   58.8109 C   0  0  0  0  0  0  0  0  0  0  0  0
   31.7657   36.2588   59.7634 C   0  0  0  0  0  0  0  0  0  0  0  0
   31.2052   37.1112   60.6880 C   0  0  0  0  0  0  0  0  0  0  0  0
   32.2033   36.8225   65.5203 H   0  0  0  0  0  0  0  0  0  0  0  0
   32.9047   38.1489   64.5628 H   0  0  0  0  0  0  0  0  0  0  0  0
   31.1376   37.9555   64.6550 H   0  0  0  0  0  0  0  0  0  0  0  0
   27.4693   35.1002   65.0563 H   0  0  0  0  0  0  0  0  0  0  0  0
   26.6296   32.8434   65.5546 H   0  0  0  0  0  0  0  0  0  0  0  0
   28.0363   30.8753   65.1094 H   0  0  0  0  0  0  0  0  0  0  0  0
   30.2860   31.1484   64.1527 H   0  0  0  0  0  0  0  0  0  0  0  0
   31.1440   33.3937   63.6355 H   0  0  0  0  0  0  0  0  0  0  0  0
   29.0667   35.5382   60.8987 H   0  0  0  0  0  0  0  0  0  0  0  0
   30.8807   40.0729   61.8742 H   0  0  0  0  0  0  0  0  0  0  0  0
   32.6202   40.0108   59.6863 H   0  0  0  0  0  0  0  0  0  0  0  0
   33.6172   38.4879   58.0386 H   0  0  0  0  0  0  0  0  0  0  0  0
   33.0852   36.0853   58.0874 H   0  0  0  0  0  0  0  0  0  0  0  0
   31.5267   35.2057   59.7842 H   0  0  0  0  0  0  0  0  0  0  0  0
  1  2  1  0  0  0  0
  1 25  1  0  0  0  0
  1 26  1  0  0  0  0
  1 27  1  0  0  0  0
  2  3  2  0  0  0  0
  2  4  1  0  0  0  0
  4  5  1  6  0  0  0
  4  6  1  0  0  0  0
  4 14  1  0  0  0  0
  6  7  2  0  0  0  0
  6  8  1  0  0  0  0
  8 13  2  0  0  0  0
  8  9  1  0  0  0  0
  9 10  2  0  0  0  0
  9 28  1  0  0  0  0
 10 11  1  0  0  0  0
 10 29  1  0  0  0  0
 11 12  2  0  0  0  0
 11 30  1  0  0  0  0
 12 13  1  0  0  0  0
 12 31  1  0  0  0  0
 13 32  1  0  0  0  0
 14 24  1  0  0  0  0
 14 15  1  6  0  0  0
 14 16  1  0  0  0  0
 15 33  1  0  0  0  0
 16 17  2  0  0  0  0
 16 18  1  0  0  0  0
 18 19  1  0  0  0  0
 18 34  1  0  0  0  0
 19 24  2  0  0  0  0
 19 20  1  0  0  0  0
 20 21  2  0  0  0  0
 20 35  1  0  0  0  0
 21 22  1  0  0  0  0
 21 36  1  0  0  0  0
 22 23  2  0  0  0  0
 22 37  1  0  0  0  0
 23 24  1  0  0  0  0
 23 38  1  0  0  0  0
M  END
$$$$
