ZINC000000041740      none
 OpenBabel11202420153D

 34 36  0  0  0  0  0  0  0  0999 V2000
   32.2223   33.7671   57.3038 C   0  0  0  0  0  0  0  0  0  0  0  0
   31.8459   34.7616   58.3716 C   0  0  0  0  0  0  0  0  0  0  0  0
   30.8428   34.4606   59.2739 C   0  0  0  0  0  0  0  0  0  0  0  0
   30.4974   35.3728   60.2533 C   0  0  0  0  0  0  0  0  0  0  0  0
   31.1557   36.5859   60.3310 C   0  0  0  0  0  0  0  0  0  0  0  0
   30.7155   37.7488   61.5795 S   0  0  0  0  0  0  0  0  0  0  0  0
   29.3802   37.4444   61.9585 O   0  0  0  0  0  0  0  0  0  0  0  0
   31.1151   39.0247   61.0983 O   0  0  0  0  0  0  0  0  0  0  0  0
   31.6609   37.4303   62.9012 N   0  0  0  0  0  0  0  0  0  0  0  0
   31.2232   36.5376   63.8681 C   0  0  0  0  0  0  0  0  0  0  0  0
   30.0528   35.9450   63.7302 N   0  0  0  0  0  0  0  0  0  0  0  0
   29.6320   35.0829   64.6646 C   0  0  0  0  0  0  0  0  0  0  0  0
   28.3906   34.4356   64.5447 C   0  0  0  0  0  0  0  0  0  0  0  0
   27.9877   33.5641   65.5096 C   0  0  0  0  0  0  0  0  0  0  0  0
   28.7895   33.3025   66.6185 C   0  0  0  0  0  0  0  0  0  0  0  0
   29.9982   33.9109   66.7674 C   0  0  0  0  0  0  0  0  0  0  0  0
   30.4476   34.8167   65.7918 C   0  0  0  0  0  0  0  0  0  0  0  0
   31.6327   35.4285   65.9138 N   0  0  0  0  0  0  0  0  0  0  0  0
   32.0313   36.2701   64.9896 C   0  0  0  0  0  0  0  0  0  0  0  0
   33.5681   37.0612   65.1510 Cl  0  0  0  0  0  0  0  0  0  0  0  0
   32.1555   36.8890   59.4258 C   0  0  0  0  0  0  0  0  0  0  0  0
   32.5038   35.9749   58.4490 C   0  0  0  0  0  0  0  0  0  0  0  0
   31.6189   33.9438   56.4135 H   0  0  0  0  0  0  0  0  0  0  0  0
   33.2776   33.8819   57.0561 H   0  0  0  0  0  0  0  0  0  0  0  0
   32.0430   32.7561   57.6696 H   0  0  0  0  0  0  0  0  0  0  0  0
   30.3287   33.5127   59.2134 H   0  0  0  0  0  0  0  0  0  0  0  0
   29.7135   35.1378   60.9581 H   0  0  0  0  0  0  0  0  0  0  0  0
   32.5210   37.8681   62.9991 H   0  0  0  0  0  0  0  0  0  0  0  0
   27.7589   34.6288   63.6903 H   0  0  0  0  0  0  0  0  0  0  0  0
   27.0349   33.0649   65.4119 H   0  0  0  0  0  0  0  0  0  0  0  0
   28.4473   32.6068   67.3706 H   0  0  0  0  0  0  0  0  0  0  0  0
   30.6094   33.6979   67.6319 H   0  0  0  0  0  0  0  0  0  0  0  0
   32.6667   37.8386   59.4837 H   0  0  0  0  0  0  0  0  0  0  0  0
   33.2877   36.2100   57.7443 H   0  0  0  0  0  0  0  0  0  0  0  0
  1  2  1  0  0  0  0
  1 23  1  0  0  0  0
  1 24  1  0  0  0  0
  1 25  1  0  0  0  0
  2 22  2  0  0  0  0
  2  3  1  0  0  0  0
  3  4  2  0  0  0  0
  3 26  1  0  0  0  0
  4  5  1  0  0  0  0
  4 27  1  0  0  0  0
  5  6  1  0  0  0  0
  5 21  2  0  0  0  0
  6  7  2  0  0  0  0
  6  8  2  0  0  0  0
  6  9  1  0  0  0  0
  9 10  1  0  0  0  0
  9 28  1  0  0  0  0
 10 19  2  0  0  0  0
 10 11  1  0  0  0  0
 11 12  2  0  0  0  0
 12 17  1  0  0  0  0
 12 13  1  0  0  0  0
 13 14  2  0  0  0  0
 13 29  1  0  0  0  0
 14 15  1  0  0  0  0
 14 30  1  0  0  0  0
 15 16  2  0  0  0  0
 15 31  1  0  0  0  0
 16 17  1  0  0  0  0
 16 32  1  0  0  0  0
 17 18  2  0  0  0  0
 18 19  1  0  0  0  0
 19 20  1  0  0  0  0
 21 22  1  0  0  0  0
 21 33  1  0  0  0  0
 22 34  1  0  0  0  0
M  END
$$$$
