ZINC000000054019      none
 OpenBabel11202420153D

 25 26  0  0  0  0  0  0  0  0999 V2000
   33.5269   40.4982   59.2488 N   0  0  0  0  0  0  0  0  0  0  0  0
   33.0417   39.2049   59.1352 C   0  0  0  0  0  0  0  0  0  0  0  0
   32.4522   38.5465   60.0844 N   0  0  0  0  0  0  0  0  0  0  0  0
   32.0560   37.3181   59.8020 C   0  0  0  0  0  0  0  0  0  0  0  0
   31.3631   36.4346   60.8072 C   0  0  0  0  0  0  0  0  0  0  0  0
   31.2192   37.1751   62.1118 C   0  0  0  0  0  0  0  0  0  0  0  0
   32.2137   37.0899   63.0684 C   0  0  0  0  0  0  0  0  0  0  0  0
   32.0814   37.7688   64.2651 C   0  0  0  0  0  0  0  0  0  0  0  0
   30.9520   38.5287   64.5077 C   0  0  0  0  0  0  0  0  0  0  0  0
   29.9605   38.6184   63.5491 C   0  0  0  0  0  0  0  0  0  0  0  0
   28.7544   39.4371   63.8061 N   0  0  0  0  0  0  0  0  0  0  0  0
   28.6357   40.0315   64.8625 O   0  0  0  0  0  0  0  0  0  0  0  0
   27.8808   39.5163   62.9611 O   0  0  0  0  0  0  0  0  0  0  0  0
   30.0927   37.9391   62.3521 C   0  0  0  0  0  0  0  0  0  0  0  0
   32.3135   36.9254   58.5542 C   0  0  0  0  0  0  0  0  0  0  0  0
   33.1265   38.2478   57.7211 S   0  0  0  0  0  0  0  0  0  0  0  0
   33.9534   40.9248   58.4892 H   0  0  0  0  0  0  0  0  0  0  0  0
   33.4401   40.9769   60.0880 H   0  0  0  0  0  0  0  0  0  0  0  0
   31.9531   35.5318   60.9650 H   0  0  0  0  0  0  0  0  0  0  0  0
   30.3761   36.1629   60.4329 H   0  0  0  0  0  0  0  0  0  0  0  0
   33.0937   36.4927   62.8808 H   0  0  0  0  0  0  0  0  0  0  0  0
   32.8581   37.7019   65.0126 H   0  0  0  0  0  0  0  0  0  0  0  0
   30.8468   39.0555   65.4446 H   0  0  0  0  0  0  0  0  0  0  0  0
   29.3158   38.0057   61.6048 H   0  0  0  0  0  0  0  0  0  0  0  0
   32.0671   35.9640   58.1284 H   0  0  0  0  0  0  0  0  0  0  0  0
  1  2  1  0  0  0  0
  1 17  1  0  0  0  0
  1 18  1  0  0  0  0
  2 16  1  0  0  0  0
  2  3  2  0  0  0  0
  3  4  1  0  0  0  0
  4  5  1  0  0  0  0
  4 15  2  0  0  0  0
  5  6  1  0  0  0  0
  5 19  1  0  0  0  0
  5 20  1  0  0  0  0
  6 14  2  0  0  0  0
  6  7  1  0  0  0  0
  7  8  2  0  0  0  0
  7 21  1  0  0  0  0
  8  9  1  0  0  0  0
  8 22  1  0  0  0  0
  9 10  2  0  0  0  0
  9 23  1  0  0  0  0
 10 11  1  0  0  0  0
 10 14  1  0  0  0  0
 11 12  2  0  0  0  0
 11 13  2  0  0  0  0
 14 24  1  0  0  0  0
 15 16  1  0  0  0  0
 15 25  1  0  0  0  0
M  END
$$$$
