ZINC000000006256      none
 OpenBabel11202420153D

 30 34  0  0  0  0  0  0  0  0999 V2000
   32.9942   39.8123   58.6381 O   0  0  0  0  0  0  0  0  0  0  0  0
   33.0595   38.7243   58.0962 C   0  0  0  0  0  0  0  0  0  0  0  0
   33.6432   38.5939   56.7519 C   0  0  0  0  0  0  0  0  0  0  0  0
   34.1288   39.7169   56.0767 C   0  0  0  0  0  0  0  0  0  0  0  0
   34.6711   39.5776   54.8183 C   0  0  0  0  0  0  0  0  0  0  0  0
   34.7403   38.3300   54.2150 C   0  0  0  0  0  0  0  0  0  0  0  0
   34.2672   37.2098   54.8639 C   0  0  0  0  0  0  0  0  0  0  0  0
   33.7132   37.3272   56.1387 C   0  0  0  0  0  0  0  0  0  0  0  0
   33.2027   36.1392   56.8445 C   0  0  0  0  0  0  0  0  0  0  0  0
   33.2688   34.8800   56.2495 C   0  0  0  0  0  0  0  0  0  0  0  0
   32.7778   33.7491   56.9234 C   0  0  0  0  0  0  0  0  0  0  0  0
   32.2284   33.8597   58.1693 C   0  0  0  0  0  0  0  0  0  0  0  0
   32.1492   35.1147   58.7961 C   0  0  0  0  0  0  0  0  0  0  0  0
   31.5958   35.2773   60.0754 C   0  0  0  0  0  0  0  0  0  0  0  0
   31.5535   36.5427   60.6267 C   0  0  0  0  0  0  0  0  0  0  0  0
   32.0182   37.5975   59.9869 N   0  0  0  0  0  0  0  0  0  0  0  0
   32.5528   37.5165   58.7779 C   0  0  0  0  0  0  0  0  0  0  0  0
   32.6405   36.2665   58.1297 C   0  0  0  0  0  0  0  0  0  0  0  0
   32.9637   32.6580   56.1230 O   0  0  0  0  0  0  0  0  0  0  0  0
   33.9373   33.0617   55.1427 C   0  0  0  0  0  0  0  0  0  0  0  0
   33.7546   34.4856   55.0400 O   0  0  0  0  0  0  0  0  0  0  0  0
   34.0785   40.6912   56.5400 H   0  0  0  0  0  0  0  0  0  0  0  0
   35.0457   40.4461   54.2972 H   0  0  0  0  0  0  0  0  0  0  0  0
   35.1684   38.2359   53.2280 H   0  0  0  0  0  0  0  0  0  0  0  0
   34.3248   36.2430   54.3861 H   0  0  0  0  0  0  0  0  0  0  0  0
   31.8541   32.9810   58.6732 H   0  0  0  0  0  0  0  0  0  0  0  0
   31.2087   34.4280   60.6188 H   0  0  0  0  0  0  0  0  0  0  0  0
   31.1282   36.6719   61.6109 H   0  0  0  0  0  0  0  0  0  0  0  0
   34.9452   32.8292   55.4865 H   0  0  0  0  0  0  0  0  0  0  0  0
   33.7397   32.5785   54.1859 H   0  0  0  0  0  0  0  0  0  0  0  0
  1  2  2  0  0  0  0
  2 17  1  0  0  0  0
  2  3  1  0  0  0  0
  3  8  2  0  0  0  0
  3  4  1  0  0  0  0
  4  5  2  0  0  0  0
  4 22  1  0  0  0  0
  5  6  1  0  0  0  0
  5 23  1  0  0  0  0
  6  7  2  0  0  0  0
  6 24  1  0  0  0  0
  7  8  1  0  0  0  0
  7 25  1  0  0  0  0
  8  9  1  0  0  0  0
  9 18  2  0  0  0  0
  9 10  1  0  0  0  0
 10 21  1  0  0  0  0
 10 11  2  0  0  0  0
 11 12  1  0  0  0  0
 11 19  1  0  0  0  0
 12 13  2  0  0  0  0
 12 26  1  0  0  0  0
 13 18  1  0  0  0  0
 13 14  1  0  0  0  0
 14 15  2  0  0  0  0
 14 27  1  0  0  0  0
 15 16  1  0  0  0  0
 15 28  1  0  0  0  0
 16 17  2  0  0  0  0
 17 18  1  0  0  0  0
 19 20  1  0  0  0  0
 20 21  1  0  0  0  0
 20 29  1  0  0  0  0
 20 30  1  0  0  0  0
M  END
$$$$
