ZINC000000040340      none
 OpenBabel11202420153D

 27 28  0  0  1  0  0  0  0  0999 V2000
   32.6028   36.8255   66.1033 C   0  0  0  0  0  0  0  0  0  0  0  0
   32.6097   36.6789   64.6036 C   0  0  0  0  0  0  0  0  0  0  0  0
   32.7891   37.6465   63.9027 O   0  0  0  0  0  0  0  0  0  0  0  0
   32.4164   35.4731   64.0462 O   0  0  0  0  0  0  0  0  0  0  0  0
   32.4359   35.4064   62.5959 C   0  0  0  0  0  0  0  0  0  0  0  0
   31.0210   35.6248   62.0563 C   0  0  2  0  0  0  0  0  0  0  0  0
   30.3012   35.1059   62.6893 H   0  0  0  0  0  0  0  0  0  0  0  0
   30.9107   34.9868   60.3574 S   0  0  0  0  0  0  0  0  0  0  0  0
   31.7863   36.2230   59.4512 C   0  0  0  0  0  0  0  0  0  0  0  0
   32.4681   35.8813   58.2939 C   0  0  0  0  0  0  0  0  0  0  0  0
   33.1466   36.8522   57.5809 C   0  0  0  0  0  0  0  0  0  0  0  0
   33.1403   38.1627   58.0228 C   0  0  0  0  0  0  0  0  0  0  0  0
   32.4679   38.5076   59.1783 C   0  0  0  0  0  0  0  0  0  0  0  0
   31.7808   37.5407   59.9058 C   0  0  0  0  0  0  0  0  0  0  0  0
   31.1188   37.9143   61.0722 N   0  0  0  0  0  0  0  0  0  0  0  0
   30.7087   37.0982   62.0385 C   0  0  0  0  0  0  0  0  0  0  0  0
   30.0525   37.5614   62.9474 O   0  0  0  0  0  0  0  0  0  0  0  0
   33.3917   36.2077   66.5324 H   0  0  0  0  0  0  0  0  0  0  0  0
   32.7748   37.8692   66.3671 H   0  0  0  0  0  0  0  0  0  0  0  0
   31.6373   36.5060   66.4953 H   0  0  0  0  0  0  0  0  0  0  0  0
   32.7973   34.4270   62.2821 H   0  0  0  0  0  0  0  0  0  0  0  0
   33.0972   36.1799   62.2054 H   0  0  0  0  0  0  0  0  0  0  0  0
   32.4695   34.8577   57.9496 H   0  0  0  0  0  0  0  0  0  0  0  0
   33.6805   36.5877   56.6801 H   0  0  0  0  0  0  0  0  0  0  0  0
   33.6685   38.9202   57.4628 H   0  0  0  0  0  0  0  0  0  0  0  0
   32.4719   39.5332   59.5167 H   0  0  0  0  0  0  0  0  0  0  0  0
   30.9400   38.8602   61.1914 H   0  0  0  0  0  0  0  0  0  0  0  0
  1  2  1  0  0  0  0
  1 18  1  0  0  0  0
  1 19  1  0  0  0  0
  1 20  1  0  0  0  0
  2  3  2  0  0  0  0
  2  4  1  0  0  0  0
  4  5  1  0  0  0  0
  5  6  1  0  0  0  0
  5 21  1  0  0  0  0
  5 22  1  0  0  0  0
  6  7  1  1  0  0  0
  6 16  1  0  0  0  0
  6  8  1  0  0  0  0
  8  9  1  0  0  0  0
  9 14  2  0  0  0  0
  9 10  1  0  0  0  0
 10 11  2  0  0  0  0
 10 23  1  0  0  0  0
 11 12  1  0  0  0  0
 11 24  1  0  0  0  0
 12 13  2  0  0  0  0
 12 25  1  0  0  0  0
 13 14  1  0  0  0  0
 13 26  1  0  0  0  0
 14 15  1  0  0  0  0
 15 16  1  0  0  0  0
 15 27  1  0  0  0  0
 16 17  2  0  0  0  0
M  END
$$$$
