ZINC000000056390      none
 OpenBabel11202420153D

 40 42  0  0  1  0  0  0  0  0999 V2000
   30.4527   42.7614   68.1355 O   0  0  0  0  0  0  0  0  0  0  0  0
   30.9228   41.7002   67.7837 C   0  0  0  0  0  0  0  0  0  0  0  0
   30.3139   40.7846   66.7445 C   0  0  0  0  0  0  0  0  0  0  0  0
   31.0295   39.4317   66.9652 C   0  0  1  0  0  0  0  0  0  0  0  0
   30.4586   38.7933   67.6394 H   0  0  0  0  0  0  0  0  0  0  0  0
   31.2830   38.7355   65.6530 C   0  0  0  0  0  0  0  0  0  0  0  0
   30.4218   38.9304   64.5895 C   0  0  0  0  0  0  0  0  0  0  0  0
   30.6544   38.2917   63.3858 C   0  0  0  0  0  0  0  0  0  0  0  0
   31.7487   37.4589   63.2453 C   0  0  0  0  0  0  0  0  0  0  0  0
   32.0451   36.6448   61.7110 S   0  0  0  0  0  0  0  0  0  0  0  0
   30.7913   36.5730   61.0461 O   0  0  0  0  0  0  0  0  0  0  0  0
   32.8333   35.5008   62.0094 O   0  0  0  0  0  0  0  0  0  0  0  0
   33.0000   37.6463   60.8013 N   0  0  0  0  0  0  0  0  0  0  0  0
   32.3859   38.6335   59.9099 C   0  0  0  0  0  0  0  0  0  0  0  0
   32.8172   38.3660   58.4909 C   0  0  0  0  0  0  0  0  0  0  0  0
   33.2184   39.4036   57.6634 C   0  0  0  0  0  0  0  0  0  0  0  0
   33.6120   39.1194   56.3695 C   0  0  0  0  0  0  0  0  0  0  0  0
   33.5988   37.8808   55.9171 N   0  0  0  0  0  0  0  0  0  0  0  0
   33.2183   36.8701   56.6739 C   0  0  0  0  0  0  0  0  0  0  0  0
   32.8167   37.0771   57.9801 C   0  0  0  0  0  0  0  0  0  0  0  0
   32.6072   37.2603   64.3104 C   0  0  0  0  0  0  0  0  0  0  0  0
   32.3771   37.9024   65.5127 C   0  0  0  0  0  0  0  0  0  0  0  0
   32.3557   39.8797   67.6187 C   0  0  0  0  0  0  0  0  0  0  0  0
   32.0612   41.1668   68.2597 N   0  0  0  0  0  0  0  0  0  0  0  0
   30.5116   41.1617   65.7411 H   0  0  0  0  0  0  0  0  0  0  0  0
   29.2416   40.6804   66.9095 H   0  0  0  0  0  0  0  0  0  0  0  0
   29.5671   39.5813   64.6990 H   0  0  0  0  0  0  0  0  0  0  0  0
   29.9813   38.4437   62.5549 H   0  0  0  0  0  0  0  0  0  0  0  0
   33.9660   37.5793   60.8587 H   0  0  0  0  0  0  0  0  0  0  0  0
   32.7024   39.6345   60.2033 H   0  0  0  0  0  0  0  0  0  0  0  0
   31.3006   38.5606   59.9796 H   0  0  0  0  0  0  0  0  0  0  0  0
   33.2269   40.4206   58.0267 H   0  0  0  0  0  0  0  0  0  0  0  0
   33.9305   39.9214   55.7201 H   0  0  0  0  0  0  0  0  0  0  0  0
   33.2208   35.8691   56.2684 H   0  0  0  0  0  0  0  0  0  0  0  0
   32.5068   36.2452   58.5951 H   0  0  0  0  0  0  0  0  0  0  0  0
   33.4597   36.6061   64.2019 H   0  0  0  0  0  0  0  0  0  0  0  0
   33.0502   37.7504   66.3434 H   0  0  0  0  0  0  0  0  0  0  0  0
   32.6738   39.1511   68.3643 H   0  0  0  0  0  0  0  0  0  0  0  0
   33.1273   40.0046   66.8590 H   0  0  0  0  0  0  0  0  0  0  0  0
   32.6168   41.5796   68.9392 H   0  0  0  0  0  0  0  0  0  0  0  0
  1  2  2  0  0  0  0
  2 24  1  0  0  0  0
  2  3  1  0  0  0  0
  3  4  1  0  0  0  0
  3 25  1  0  0  0  0
  3 26  1  0  0  0  0
  4  5  1  1  0  0  0
  4  6  1  0  0  0  0
  4 23  1  0  0  0  0
  6 22  2  0  0  0  0
  6  7  1  0  0  0  0
  7  8  2  0  0  0  0
  7 27  1  0  0  0  0
  8  9  1  0  0  0  0
  8 28  1  0  0  0  0
  9 10  1  0  0  0  0
  9 21  2  0  0  0  0
 10 11  2  0  0  0  0
 10 12  2  0  0  0  0
 10 13  1  0  0  0  0
 13 14  1  0  0  0  0
 13 29  1  0  0  0  0
 14 15  1  0  0  0  0
 14 30  1  0  0  0  0
 14 31  1  0  0  0  0
 15 20  2  0  0  0  0
 15 16  1  0  0  0  0
 16 17  2  0  0  0  0
 16 32  1  0  0  0  0
 17 18  1  0  0  0  0
 17 33  1  0  0  0  0
 18 19  2  0  0  0  0
 19 20  1  0  0  0  0
 19 34  1  0  0  0  0
 20 35  1  0  0  0  0
 21 22  1  0  0  0  0
 21 36  1  0  0  0  0
 22 37  1  0  0  0  0
 23 24  1  0  0  0  0
 23 38  1  0  0  0  0
 23 39  1  0  0  0  0
 24 40  1  0  0  0  0
M  END
$$$$
