ZINC000000029696      none
 OpenBabel11202420163D

 37 38  0  0  0  0  0  0  0  0999 V2000
   34.3725   36.3299   54.5516 C   0  0  0  0  0  0  0  0  0  0  0  0
   33.5995   36.2884   55.8445 C   0  0  0  0  0  0  0  0  0  0  0  0
   32.9667   35.2972   56.1412 O   0  0  0  0  0  0  0  0  0  0  0  0
   33.6114   37.3528   56.6712 N   0  0  0  0  0  0  0  0  0  0  0  0
   32.8937   37.3144   57.8717 C   0  0  0  0  0  0  0  0  0  0  0  0
   32.9053   38.4102   58.7247 C   0  0  0  0  0  0  0  0  0  0  0  0
   32.1962   38.3689   59.9093 C   0  0  0  0  0  0  0  0  0  0  0  0
   31.4752   37.2381   60.2461 C   0  0  0  0  0  0  0  0  0  0  0  0
   30.5723   37.1892   61.7584 S   0  0  0  0  0  0  0  0  0  0  0  0
   29.3104   36.6110   61.4538 O   0  0  0  0  0  0  0  0  0  0  0  0
   30.7163   38.4716   62.3533 O   0  0  0  0  0  0  0  0  0  0  0  0
   31.3473   36.1204   62.7578 N   0  0  0  0  0  0  0  0  0  0  0  0
   32.7406   36.3570   63.1441 C   0  0  0  0  0  0  0  0  0  0  0  0
   30.6727   34.9934   63.2329 C   0  0  0  0  0  0  0  0  0  0  0  0
   29.5225   35.1414   63.9976 C   0  0  0  0  0  0  0  0  0  0  0  0
   28.8577   34.0249   64.4651 C   0  0  0  0  0  0  0  0  0  0  0  0
   29.3359   32.7606   64.1730 C   0  0  0  0  0  0  0  0  0  0  0  0
   30.4807   32.6097   63.4121 C   0  0  0  0  0  0  0  0  0  0  0  0
   31.1504   33.7219   62.9413 C   0  0  0  0  0  0  0  0  0  0  0  0
   31.4659   36.1433   59.4014 C   0  0  0  0  0  0  0  0  0  0  0  0
   32.1686   36.1802   58.2129 C   0  0  0  0  0  0  0  0  0  0  0  0
   35.3830   35.9576   54.7203 H   0  0  0  0  0  0  0  0  0  0  0  0
   33.8743   35.7053   53.8101 H   0  0  0  0  0  0  0  0  0  0  0  0
   34.4195   37.3568   54.1890 H   0  0  0  0  0  0  0  0  0  0  0  0
   34.1175   38.1456   56.4339 H   0  0  0  0  0  0  0  0  0  0  0  0
   33.4685   39.2936   58.4623 H   0  0  0  0  0  0  0  0  0  0  0  0
   32.2050   39.2207   60.5732 H   0  0  0  0  0  0  0  0  0  0  0  0
   33.4037   35.8809   62.4218 H   0  0  0  0  0  0  0  0  0  0  0  0
   32.9350   37.4294   63.1640 H   0  0  0  0  0  0  0  0  0  0  0  0
   32.9198   35.9369   64.1337 H   0  0  0  0  0  0  0  0  0  0  0  0
   29.1510   36.1285   64.2297 H   0  0  0  0  0  0  0  0  0  0  0  0
   27.9634   34.1392   65.0596 H   0  0  0  0  0  0  0  0  0  0  0  0
   28.8141   31.8891   64.5400 H   0  0  0  0  0  0  0  0  0  0  0  0
   30.8512   31.6209   63.1856 H   0  0  0  0  0  0  0  0  0  0  0  0
   32.0446   33.6034   62.3475 H   0  0  0  0  0  0  0  0  0  0  0  0
   30.9051   35.2601   59.6692 H   0  0  0  0  0  0  0  0  0  0  0  0
   32.1575   35.3264   57.5517 H   0  0  0  0  0  0  0  0  0  0  0  0
  1  2  1  0  0  0  0
  1 22  1  0  0  0  0
  1 23  1  0  0  0  0
  1 24  1  0  0  0  0
  2  3  2  0  0  0  0
  2  4  1  0  0  0  0
  4  5  1  0  0  0  0
  4 25  1  0  0  0  0
  5 21  2  0  0  0  0
  5  6  1  0  0  0  0
  6  7  2  0  0  0  0
  6 26  1  0  0  0  0
  7  8  1  0  0  0  0
  7 27  1  0  0  0  0
  8  9  1  0  0  0  0
  8 20  2  0  0  0  0
  9 10  2  0  0  0  0
  9 11  2  0  0  0  0
  9 12  1  0  0  0  0
 12 13  1  0  0  0  0
 12 14  1  0  0  0  0
 13 28  1  0  0  0  0
 13 29  1  0  0  0  0
 13 30  1  0  0  0  0
 14 19  2  0  0  0  0
 14 15  1  0  0  0  0
 15 16  2  0  0  0  0
 15 31  1  0  0  0  0
 16 17  1  0  0  0  0
 16 32  1  0  0  0  0
 17 18  2  0  0  0  0
 17 33  1  0  0  0  0
 18 19  1  0  0  0  0
 18 34  1  0  0  0  0
 19 35  1  0  0  0  0
 20 21  1  0  0  0  0
 20 36  1  0  0  0  0
 21 37  1  0  0  0  0
M  END
$$$$
