ZINC000000057954      none
 OpenBabel11202420153D

 33 35  0  0  1  0  0  0  0  0999 V2000
   33.8588   37.0453   54.7871 C   0  0  0  0  0  0  0  0  0  0  0  0
   33.9101   38.3518   55.3639 O   0  0  0  0  0  0  0  0  0  0  0  0
   33.4918   38.4748   56.6520 C   0  0  0  0  0  0  0  0  0  0  0  0
   33.5159   39.7179   57.2744 C   0  0  0  0  0  0  0  0  0  0  0  0
   33.0979   39.8584   58.5820 C   0  0  0  0  0  0  0  0  0  0  0  0
   32.6466   38.7544   59.2926 C   0  0  0  0  0  0  0  0  0  0  0  0
   32.6166   37.4995   58.6642 C   0  0  0  0  0  0  0  0  0  0  0  0
   33.0434   37.3633   57.3418 C   0  0  0  0  0  0  0  0  0  0  0  0
   32.1253   36.3333   59.4195 C   0  0  0  0  0  0  0  0  0  0  0  0
   31.8742   35.2794   58.8740 O   0  0  0  0  0  0  0  0  0  0  0  0
   31.9485   36.5197   60.9160 C   0  0  0  0  0  0  0  0  0  0  0  0
   31.3599   37.9217   61.1314 C   0  0  1  0  0  0  0  0  0  0  0  0
   30.3900   37.9887   60.6386 H   0  0  0  0  0  0  0  0  0  0  0  0
   31.1927   38.1756   62.6074 C   0  0  0  0  0  0  0  0  0  0  0  0
   30.1798   39.0022   63.0562 C   0  0  0  0  0  0  0  0  0  0  0  0
   30.0292   39.2388   64.4098 C   0  0  0  0  0  0  0  0  0  0  0  0
   30.8863   38.6406   65.3155 C   0  0  0  0  0  0  0  0  0  0  0  0
   31.8960   37.8110   64.8669 C   0  0  0  0  0  0  0  0  0  0  0  0
   32.0496   37.5783   63.5129 C   0  0  0  0  0  0  0  0  0  0  0  0
   32.2437   38.8963   60.5777 O   0  0  0  0  0  0  0  0  0  0  0  0
   32.8304   36.6839   54.7970 H   0  0  0  0  0  0  0  0  0  0  0  0
   34.2192   37.0874   53.7593 H   0  0  0  0  0  0  0  0  0  0  0  0
   34.4874   36.3679   55.3653 H   0  0  0  0  0  0  0  0  0  0  0  0
   33.8650   40.5823   56.7289 H   0  0  0  0  0  0  0  0  0  0  0  0
   33.1218   40.8296   59.0537 H   0  0  0  0  0  0  0  0  0  0  0  0
   33.0232   36.3966   56.8607 H   0  0  0  0  0  0  0  0  0  0  0  0
   32.9137   36.4413   61.4162 H   0  0  0  0  0  0  0  0  0  0  0  0
   31.2646   35.7660   61.3063 H   0  0  0  0  0  0  0  0  0  0  0  0
   29.5080   39.4660   62.3490 H   0  0  0  0  0  0  0  0  0  0  0  0
   29.2397   39.8871   64.7603 H   0  0  0  0  0  0  0  0  0  0  0  0
   30.7652   38.8221   66.3731 H   0  0  0  0  0  0  0  0  0  0  0  0
   32.5652   37.3440   65.5743 H   0  0  0  0  0  0  0  0  0  0  0  0
   32.8389   36.9298   63.1626 H   0  0  0  0  0  0  0  0  0  0  0  0
  1  2  1  0  0  0  0
  1 21  1  0  0  0  0
  1 22  1  0  0  0  0
  1 23  1  0  0  0  0
  2  3  1  0  0  0  0
  3  8  2  0  0  0  0
  3  4  1  0  0  0  0
  4  5  2  0  0  0  0
  4 24  1  0  0  0  0
  5  6  1  0  0  0  0
  5 25  1  0  0  0  0
  6 20  1  0  0  0  0
  6  7  2  0  0  0  0
  7  8  1  0  0  0  0
  7  9  1  0  0  0  0
  8 26  1  0  0  0  0
  9 10  2  0  0  0  0
  9 11  1  0  0  0  0
 11 12  1  0  0  0  0
 11 27  1  0  0  0  0
 11 28  1  0  0  0  0
 12 13  1  6  0  0  0
 12 14  1  0  0  0  0
 12 20  1  0  0  0  0
 14 19  2  0  0  0  0
 14 15  1  0  0  0  0
 15 16  2  0  0  0  0
 15 29  1  0  0  0  0
 16 17  1  0  0  0  0
 16 30  1  0  0  0  0
 17 18  2  0  0  0  0
 17 31  1  0  0  0  0
 18 19  1  0  0  0  0
 18 32  1  0  0  0  0
 19 33  1  0  0  0  0
M  END
$$$$
