ZINC000000030088      none
 OpenBabel11202420163D

 36 36  0  0  0  0  0  0  0  0999 V2000
   30.7740   34.9474   68.3481 C   0  0  0  0  0  0  0  0  0  0  0  0
   29.9864   34.5915   67.3635 C   0  0  0  0  0  0  0  0  0  0  0  0
   29.2148   35.6370   66.6002 C   0  0  0  0  0  0  0  0  0  0  0  0
   29.5997   35.5933   65.1872 N   0  0  0  0  0  0  0  0  0  0  0  0
   28.8716   34.7279   64.2562 C   0  0  0  0  0  0  0  0  0  0  0  0
   29.5254   33.3707   64.2159 C   0  0  0  0  0  0  0  0  0  0  0  0
   28.8435   32.3048   64.5549 C   0  0  0  0  0  0  0  0  0  0  0  0
   30.6237   36.3493   64.7442 C   0  0  0  0  0  0  0  0  0  0  0  0
   31.2281   37.0675   65.5169 O   0  0  0  0  0  0  0  0  0  0  0  0
   31.0115   36.3052   63.3208 C   0  0  0  0  0  0  0  0  0  0  0  0
   31.9640   35.3834   62.8806 C   0  0  0  0  0  0  0  0  0  0  0  0
   32.3221   35.3476   61.5502 C   0  0  0  0  0  0  0  0  0  0  0  0
   31.7410   36.2218   60.6464 C   0  0  0  0  0  0  0  0  0  0  0  0
   30.7980   37.1381   61.0686 C   0  0  0  0  0  0  0  0  0  0  0  0
   30.4264   37.1881   62.4036 C   0  0  0  0  0  0  0  0  0  0  0  0
   29.4997   38.0881   62.8198 O   0  0  0  0  0  0  0  0  0  0  0  0
   29.8869   38.9761   63.7501 C   0  0  0  0  0  0  0  0  0  0  0  0
   28.8842   39.5235   64.7329 C   0  0  0  0  0  0  0  0  0  0  0  0
   31.0393   39.3360   63.7992 O   0  0  0  0  0  0  0  0  0  0  0  0
   30.8703   35.9902   68.6126 H   0  0  0  0  0  0  0  0  0  0  0  0
   31.3269   34.1982   68.8950 H   0  0  0  0  0  0  0  0  0  0  0  0
   29.8899   33.5488   67.0990 H   0  0  0  0  0  0  0  0  0  0  0  0
   29.4384   36.6230   67.0073 H   0  0  0  0  0  0  0  0  0  0  0  0
   28.1467   35.4397   66.6920 H   0  0  0  0  0  0  0  0  0  0  0  0
   27.8387   34.6238   64.5888 H   0  0  0  0  0  0  0  0  0  0  0  0
   28.8896   35.1696   63.2599 H   0  0  0  0  0  0  0  0  0  0  0  0
   30.5562   33.2769   63.9075 H   0  0  0  0  0  0  0  0  0  0  0  0
   29.3121   31.3322   64.5259 H   0  0  0  0  0  0  0  0  0  0  0  0
   27.8128   32.3987   64.8632 H   0  0  0  0  0  0  0  0  0  0  0  0
   32.4196   34.6998   63.5818 H   0  0  0  0  0  0  0  0  0  0  0  0
   33.0587   34.6344   61.2107 H   0  0  0  0  0  0  0  0  0  0  0  0
   32.0304   36.1897   59.6064 H   0  0  0  0  0  0  0  0  0  0  0  0
   30.3496   37.8168   60.3581 H   0  0  0  0  0  0  0  0  0  0  0  0
   28.4584   38.7042   65.3120 H   0  0  0  0  0  0  0  0  0  0  0  0
   29.3793   40.2245   65.4048 H   0  0  0  0  0  0  0  0  0  0  0  0
   28.0895   40.0380   64.1926 H   0  0  0  0  0  0  0  0  0  0  0  0
  1  2  2  0  0  0  0
  1 20  1  0  0  0  0
  1 21  1  0  0  0  0
  2  3  1  0  0  0  0
  2 22  1  0  0  0  0
  3  4  1  0  0  0  0
  3 23  1  0  0  0  0
  3 24  1  0  0  0  0
  4  5  1  0  0  0  0
  4  8  1  0  0  0  0
  5  6  1  0  0  0  0
  5 25  1  0  0  0  0
  5 26  1  0  0  0  0
  6  7  2  0  0  0  0
  6 27  1  0  0  0  0
  7 28  1  0  0  0  0
  7 29  1  0  0  0  0
  8  9  2  0  0  0  0
  8 10  1  0  0  0  0
 10 15  2  0  0  0  0
 10 11  1  0  0  0  0
 11 12  2  0  0  0  0
 11 30  1  0  0  0  0
 12 13  1  0  0  0  0
 12 31  1  0  0  0  0
 13 14  2  0  0  0  0
 13 32  1  0  0  0  0
 14 15  1  0  0  0  0
 14 33  1  0  0  0  0
 15 16  1  0  0  0  0
 16 17  1  0  0  0  0
 17 18  1  0  0  0  0
 17 19  2  0  0  0  0
 18 34  1  0  0  0  0
 18 35  1  0  0  0  0
 18 36  1  0  0  0  0
M  END
$$$$
