ZINC000000005745      none
 OpenBabel11202420153D

 33 34  0  0  0  0  0  0  0  0999 V2000
   35.8793   40.7185   51.7702 C   0  0  0  0  0  0  0  0  0  0  0  0
   35.6183   39.3652   52.1475 O   0  0  0  0  0  0  0  0  0  0  0  0
   35.0170   39.1647   53.3506 C   0  0  0  0  0  0  0  0  0  0  0  0
   34.6850   40.2564   54.1507 C   0  0  0  0  0  0  0  0  0  0  0  0
   34.0700   40.0626   55.3627 C   0  0  0  0  0  0  0  0  0  0  0  0
   33.7818   38.7685   55.8141 C   0  0  0  0  0  0  0  0  0  0  0  0
   33.0280   38.2331   57.3107 S   0  0  0  0  0  0  0  0  0  0  0  0
   33.1573   36.5446   56.8595 C   0  0  0  0  0  0  0  0  0  0  0  0
   32.6979   35.4289   57.6865 C   0  0  0  0  0  0  0  0  0  0  0  0
   32.8424   34.1621   57.2498 N   0  0  0  0  0  0  0  0  0  0  0  0
   32.1848   35.6446   58.7693 O   0  0  0  0  0  0  0  0  0  0  0  0
   33.7387   36.4096   55.6452 C   0  0  0  0  0  0  0  0  0  0  0  0
   33.9574   35.2037   55.0632 O   0  0  0  0  0  0  0  0  0  0  0  0
   32.9176   34.6872   54.2303 C   0  0  0  0  0  0  0  0  0  0  0  0
   33.3424   33.3296   53.6669 C   0  0  0  0  0  0  0  0  0  0  0  0
   32.6575   35.6589   53.0775 C   0  0  0  0  0  0  0  0  0  0  0  0
   34.1141   37.6665   55.0211 C   0  0  0  0  0  0  0  0  0  0  0  0
   34.7388   37.8867   53.7717 C   0  0  0  0  0  0  0  0  0  0  0  0
   36.5364   41.1807   52.5067 H   0  0  0  0  0  0  0  0  0  0  0  0
   36.3601   40.7367   50.7921 H   0  0  0  0  0  0  0  0  0  0  0  0
   34.9404   41.2703   51.7238 H   0  0  0  0  0  0  0  0  0  0  0  0
   34.9059   41.2583   53.8131 H   0  0  0  0  0  0  0  0  0  0  0  0
   33.8169   40.9136   55.9776 H   0  0  0  0  0  0  0  0  0  0  0  0
   33.2512   33.9903   56.3869 H   0  0  0  0  0  0  0  0  0  0  0  0
   32.5379   33.4222   57.7980 H   0  0  0  0  0  0  0  0  0  0  0  0
   32.0069   34.5681   54.8175 H   0  0  0  0  0  0  0  0  0  0  0  0
   34.2529   33.4487   53.0797 H   0  0  0  0  0  0  0  0  0  0  0  0
   33.5276   32.6374   54.4882 H   0  0  0  0  0  0  0  0  0  0  0  0
   32.5491   32.9355   53.0316 H   0  0  0  0  0  0  0  0  0  0  0  0
   31.8642   35.2649   52.4421 H   0  0  0  0  0  0  0  0  0  0  0  0
   32.3546   36.6261   53.4787 H   0  0  0  0  0  0  0  0  0  0  0  0
   33.5680   35.7780   52.4901 H   0  0  0  0  0  0  0  0  0  0  0  0
   34.9990   37.0460   53.1454 H   0  0  0  0  0  0  0  0  0  0  0  0
  1  2  1  0  0  0  0
  1 19  1  0  0  0  0
  1 20  1  0  0  0  0
  1 21  1  0  0  0  0
  2  3  1  0  0  0  0
  3 18  2  0  0  0  0
  3  4  1  0  0  0  0
  4  5  2  0  0  0  0
  4 22  1  0  0  0  0
  5  6  1  0  0  0  0
  5 23  1  0  0  0  0
  6 17  2  0  0  0  0
  6  7  1  0  0  0  0
  7  8  1  0  0  0  0
  8  9  1  0  0  0  0
  8 12  2  0  0  0  0
  9 10  1  0  0  0  0
  9 11  2  0  0  0  0
 10 24  1  0  0  0  0
 10 25  1  0  0  0  0
 12 13  1  0  0  0  0
 12 17  1  0  0  0  0
 13 14  1  0  0  0  0
 14 15  1  0  0  0  0
 14 16  1  0  0  0  0
 14 26  1  0  0  0  0
 15 27  1  0  0  0  0
 15 28  1  0  0  0  0
 15 29  1  0  0  0  0
 16 30  1  0  0  0  0
 16 31  1  0  0  0  0
 16 32  1  0  0  0  0
 17 18  1  0  0  0  0
 18 33  1  0  0  0  0
M  END
$$$$
