ZINC000000033797      none
 OpenBabel11202420153D

 23 24  0  0  0  0  0  0  0  0999 V2000
   36.2273   31.9955   54.6744 O   0  0  0  0  0  0  0  0  0  0  0  0
   35.0677   32.0465   54.3049 N   0  0  0  0  0  0  0  0  0  0  0  0
   34.4638   31.0198   54.0510 O   0  0  0  0  0  0  0  0  0  0  0  0
   34.3927   33.3564   54.1643 C   0  0  0  0  0  0  0  0  0  0  0  0
   34.9301   34.5745   54.4076 C   0  0  0  0  0  0  0  0  0  0  0  0
   33.9540   35.4755   54.1493 N   0  0  0  0  0  0  0  0  0  0  0  0
   34.0733   36.9301   54.2758 C   0  0  0  0  0  0  0  0  0  0  0  0
   33.6811   37.3470   55.6698 C   0  0  0  0  0  0  0  0  0  0  0  0
   33.7196   38.6814   56.0288 C   0  0  0  0  0  0  0  0  0  0  0  0
   33.3544   39.0644   57.3058 C   0  0  0  0  0  0  0  0  0  0  0  0
   32.9559   38.1125   58.2256 C   0  0  0  0  0  0  0  0  0  0  0  0
   32.9226   36.7775   57.8682 C   0  0  0  0  0  0  0  0  0  0  0  0
   33.2878   36.3945   56.5912 C   0  0  0  0  0  0  0  0  0  0  0  0
   32.9047   34.8351   53.7680 N   0  0  0  0  0  0  0  0  0  0  0  0
   33.1336   33.5693   53.7661 N   0  0  0  0  0  0  0  0  0  0  0  0
   35.9350   34.7851   54.7426 H   0  0  0  0  0  0  0  0  0  0  0  0
   33.4150   37.4128   53.5536 H   0  0  0  0  0  0  0  0  0  0  0  0
   35.1041   37.2282   54.0840 H   0  0  0  0  0  0  0  0  0  0  0  0
   34.0306   39.4252   55.3102 H   0  0  0  0  0  0  0  0  0  0  0  0
   33.3801   40.1074   57.5849 H   0  0  0  0  0  0  0  0  0  0  0  0
   32.6703   38.4117   59.2232 H   0  0  0  0  0  0  0  0  0  0  0  0
   32.6109   36.0338   58.5867 H   0  0  0  0  0  0  0  0  0  0  0  0
   33.2613   35.3516   56.3119 H   0  0  0  0  0  0  0  0  0  0  0  0
  1  2  2  0  0  0  0
  2  3  2  0  0  0  0
  2  4  1  0  0  0  0
  4 15  1  0  0  0  0
  4  5  2  0  0  0  0
  5  6  1  0  0  0  0
  5 16  1  0  0  0  0
  6  7  1  0  0  0  0
  6 14  1  0  0  0  0
  7  8  1  0  0  0  0
  7 17  1  0  0  0  0
  7 18  1  0  0  0  0
  8 13  2  0  0  0  0
  8  9  1  0  0  0  0
  9 10  2  0  0  0  0
  9 19  1  0  0  0  0
 10 11  1  0  0  0  0
 10 20  1  0  0  0  0
 11 12  2  0  0  0  0
 11 21  1  0  0  0  0
 12 13  1  0  0  0  0
 12 22  1  0  0  0  0
 13 23  1  0  0  0  0
 14 15  2  0  0  0  0
M  END
$$$$
