ZINC000000001551      none
 OpenBabel11202420153D

 36 38  0  0  0  0  0  0  0  0999 V2000
   28.9545   39.0168   63.9224 O   0  0  0  0  0  0  0  0  0  0  0  0
   29.9514   38.3210   63.9823 C   0  0  0  0  0  0  0  0  0  0  0  0
   30.5005   37.7240   62.7653 C   0  0  0  0  0  0  0  0  0  0  0  0
   30.9073   38.5147   61.7498 C   0  0  0  0  0  0  0  0  0  0  0  0
   31.4593   37.9145   60.5267 C   0  0  0  0  0  0  0  0  0  0  0  0
   31.1937   36.5751   60.2203 C   0  0  0  0  0  0  0  0  0  0  0  0
   31.7134   36.0151   59.0744 C   0  0  0  0  0  0  0  0  0  0  0  0
   32.5000   36.7754   58.2187 C   0  0  0  0  0  0  0  0  0  0  0  0
   32.7693   38.1121   58.5177 C   0  0  0  0  0  0  0  0  0  0  0  0
   32.2527   38.6806   59.6652 C   0  0  0  0  0  0  0  0  0  0  0  0
   33.5561   38.6293   57.5290 O   0  0  0  0  0  0  0  0  0  0  0  0
   33.4267   37.7198   56.4203 C   0  0  0  0  0  0  0  0  0  0  0  0
   33.1185   36.4598   57.0448 O   0  0  0  0  0  0  0  0  0  0  0  0
   30.5491   38.1006   65.1700 N   0  0  0  0  0  0  0  0  0  0  0  0
   31.7496   37.2582   65.2591 C   0  0  0  0  0  0  0  0  0  0  0  0
   32.8513   38.0519   65.9775 C   0  0  0  0  0  0  0  0  0  0  0  0
   32.3230   38.5376   67.3293 C   0  0  0  0  0  0  0  0  0  0  0  0
   31.1271   39.4665   67.1077 C   0  0  0  0  0  0  0  0  0  0  0  0
   30.0092   38.6933   66.4012 C   0  0  0  0  0  0  0  0  0  0  0  0
   30.5806   36.6504   62.6793 H   0  0  0  0  0  0  0  0  0  0  0  0
   30.8272   39.5882   61.8358 H   0  0  0  0  0  0  0  0  0  0  0  0
   30.5820   35.9805   60.8826 H   0  0  0  0  0  0  0  0  0  0  0  0
   31.5073   34.9813   58.8394 H   0  0  0  0  0  0  0  0  0  0  0  0
   32.4608   39.7146   59.8974 H   0  0  0  0  0  0  0  0  0  0  0  0
   34.3639   37.6542   55.8676 H   0  0  0  0  0  0  0  0  0  0  0  0
   32.6145   38.0303   55.7632 H   0  0  0  0  0  0  0  0  0  0  0  0
   31.5203   36.3537   65.8226 H   0  0  0  0  0  0  0  0  0  0  0  0
   32.0841   36.9916   64.2564 H   0  0  0  0  0  0  0  0  0  0  0  0
   33.1400   38.9098   65.3704 H   0  0  0  0  0  0  0  0  0  0  0  0
   33.7173   37.4090   66.1351 H   0  0  0  0  0  0  0  0  0  0  0  0
   33.1107   39.0783   67.8539 H   0  0  0  0  0  0  0  0  0  0  0  0
   32.0114   37.6805   67.9265 H   0  0  0  0  0  0  0  0  0  0  0  0
   31.4321   40.3110   66.4899 H   0  0  0  0  0  0  0  0  0  0  0  0
   30.7661   39.8304   68.0697 H   0  0  0  0  0  0  0  0  0  0  0  0
   29.1949   39.3740   66.1525 H   0  0  0  0  0  0  0  0  0  0  0  0
   29.6408   37.9035   67.0559 H   0  0  0  0  0  0  0  0  0  0  0  0
  1  2  2  0  0  0  0
  2  3  1  0  0  0  0
  2 14  1  0  0  0  0
  3  4  2  0  0  0  0
  3 20  1  0  0  0  0
  4  5  1  0  0  0  0
  4 21  1  0  0  0  0
  5 10  2  0  0  0  0
  5  6  1  0  0  0  0
  6  7  2  0  0  0  0
  6 22  1  0  0  0  0
  7  8  1  0  0  0  0
  7 23  1  0  0  0  0
  8 13  1  0  0  0  0
  8  9  2  0  0  0  0
  9 10  1  0  0  0  0
  9 11  1  0  0  0  0
 10 24  1  0  0  0  0
 11 12  1  0  0  0  0
 12 13  1  0  0  0  0
 12 25  1  0  0  0  0
 12 26  1  0  0  0  0
 14 19  1  0  0  0  0
 14 15  1  0  0  0  0
 15 16  1  0  0  0  0
 15 27  1  0  0  0  0
 15 28  1  0  0  0  0
 16 17  1  0  0  0  0
 16 29  1  0  0  0  0
 16 30  1  0  0  0  0
 17 18  1  0  0  0  0
 17 31  1  0  0  0  0
 17 32  1  0  0  0  0
 18 19  1  0  0  0  0
 18 33  1  0  0  0  0
 18 34  1  0  0  0  0
 19 35  1  0  0  0  0
 19 36  1  0  0  0  0
M  END
$$$$
