ZINC000000033785      none
 OpenBabel11202420153D

 30 32  0  0  0  0  0  0  0  0999 V2000
   31.4130   33.2967   58.2601 C   0  0  0  0  0  0  0  0  0  0  0  0
   31.7831   34.7140   58.6139 C   0  0  0  0  0  0  0  0  0  0  0  0
   32.5222   35.4703   57.7498 C   0  0  0  0  0  0  0  0  0  0  0  0
   32.8549   36.7861   58.0945 C   0  0  0  0  0  0  0  0  0  0  0  0
   32.4386   37.3058   59.2747 C   0  0  0  0  0  0  0  0  0  0  0  0
   31.6983   36.5635   60.1328 N   0  0  0  0  0  0  0  0  0  0  0  0
   31.3593   35.2751   59.8277 C   0  0  0  0  0  0  0  0  0  0  0  0
   30.6319   34.7897   60.8371 N   0  0  0  0  0  0  0  0  0  0  0  0
   30.4961   35.7170   61.7806 C   0  0  0  0  0  0  0  0  0  0  0  0
   29.6387   35.5234   63.2498 S   0  0  0  0  0  0  0  0  0  0  0  0
   31.1431   36.8349   61.3920 N   0  0  0  0  0  0  0  0  0  0  0  0
   31.2337   37.9913   62.0785 C   0  0  0  0  0  0  0  0  0  0  0  0
   30.7974   39.0190   61.5980 O   0  0  0  0  0  0  0  0  0  0  0  0
   31.8629   38.0096   63.4142 C   0  0  0  0  0  0  0  0  0  0  0  0
   31.4480   38.9381   64.3717 C   0  0  0  0  0  0  0  0  0  0  0  0
   32.0383   38.9505   65.6171 C   0  0  0  0  0  0  0  0  0  0  0  0
   33.0465   38.0473   65.9182 C   0  0  0  0  0  0  0  0  0  0  0  0
   33.6260   38.0677   67.1384 F   0  0  0  0  0  0  0  0  0  0  0  0
   33.4583   37.1196   64.9734 C   0  0  0  0  0  0  0  0  0  0  0  0
   32.8747   37.0984   63.7250 C   0  0  0  0  0  0  0  0  0  0  0  0
   30.4665   33.2925   57.7196 H   0  0  0  0  0  0  0  0  0  0  0  0
   32.1919   32.8638   57.6324 H   0  0  0  0  0  0  0  0  0  0  0  0
   31.3130   32.7088   59.1725 H   0  0  0  0  0  0  0  0  0  0  0  0
   32.8530   35.0543   56.8096 H   0  0  0  0  0  0  0  0  0  0  0  0
   33.4441   37.3879   57.4183 H   0  0  0  0  0  0  0  0  0  0  0  0
   32.6994   38.3214   59.5335 H   0  0  0  0  0  0  0  0  0  0  0  0
   30.6663   39.6453   64.1366 H   0  0  0  0  0  0  0  0  0  0  0  0
   31.7185   39.6680   66.3582 H   0  0  0  0  0  0  0  0  0  0  0  0
   34.2408   36.4154   65.2147 H   0  0  0  0  0  0  0  0  0  0  0  0
   33.1996   36.3785   62.9882 H   0  0  0  0  0  0  0  0  0  0  0  0
  1  2  1  0  0  0  0
  1 21  1  0  0  0  0
  1 22  1  0  0  0  0
  1 23  1  0  0  0  0
  2  7  1  0  0  0  0
  2  3  2  0  0  0  0
  3  4  1  0  0  0  0
  3 24  1  0  0  0  0
  4  5  2  0  0  0  0
  4 25  1  0  0  0  0
  5  6  1  0  0  0  0
  5 26  1  0  0  0  0
  6 11  1  0  0  0  0
  6  7  1  0  0  0  0
  7  8  2  0  0  0  0
  8  9  1  0  0  0  0
  9 10  2  0  0  0  0
  9 11  1  0  0  0  0
 11 12  1  0  0  0  0
 12 13  2  0  0  0  0
 12 14  1  0  0  0  0
 14 20  2  0  0  0  0
 14 15  1  0  0  0  0
 15 16  2  0  0  0  0
 15 27  1  0  0  0  0
 16 17  1  0  0  0  0
 16 28  1  0  0  0  0
 17 18  1  0  0  0  0
 17 19  2  0  0  0  0
 19 20  1  0  0  0  0
 19 29  1  0  0  0  0
 20 30  1  0  0  0  0
M  END
$$$$
