ZINC000000039881      none
 OpenBabel11202420153D

 26 26  0  0  0  0  0  0  0  0999 V2000
   33.9269   38.4232   55.5343 C   0  0  0  0  0  0  0  0  0  0  0  0
   33.4785   37.2769   56.2603 O   0  0  0  0  0  0  0  0  0  0  0  0
   33.1285   37.4677   57.5603 C   0  0  0  0  0  0  0  0  0  0  0  0
   32.6842   36.3975   58.3229 C   0  0  0  0  0  0  0  0  0  0  0  0
   32.3231   36.5917   59.6416 C   0  0  0  0  0  0  0  0  0  0  0  0
   32.4151   37.8564   60.2072 C   0  0  0  0  0  0  0  0  0  0  0  0
   32.0535   38.0532   61.5468 N   0  0  0  0  0  0  0  0  0  0  0  0
   32.1998   37.0530   62.4382 C   0  0  0  0  0  0  0  0  0  0  0  0
   32.6457   35.9802   62.0802 O   0  0  0  0  0  0  0  0  0  0  0  0
   31.8520   37.2421   63.7264 N   0  0  0  0  0  0  0  0  0  0  0  0
   31.9985   36.2420   64.6179 C   0  0  0  0  0  0  0  0  0  0  0  0
   31.6507   36.4312   65.9061 N   0  0  0  0  0  0  0  0  0  0  0  0
   32.4443   35.1693   64.2599 O   0  0  0  0  0  0  0  0  0  0  0  0
   32.8599   38.9271   59.4434 C   0  0  0  0  0  0  0  0  0  0  0  0
   33.2156   38.7325   58.1233 C   0  0  0  0  0  0  0  0  0  0  0  0
   34.8119   38.8365   56.0182 H   0  0  0  0  0  0  0  0  0  0  0  0
   34.1735   38.1327   54.5130 H   0  0  0  0  0  0  0  0  0  0  0  0
   33.1375   39.1744   55.5177 H   0  0  0  0  0  0  0  0  0  0  0  0
   32.6163   35.4131   57.8839 H   0  0  0  0  0  0  0  0  0  0  0  0
   31.9729   35.7593   60.2340 H   0  0  0  0  0  0  0  0  0  0  0  0
   31.6977   38.9093   61.8323 H   0  0  0  0  0  0  0  0  0  0  0  0
   31.4963   38.0981   64.0120 H   0  0  0  0  0  0  0  0  0  0  0  0
   31.2949   37.2871   66.1918 H   0  0  0  0  0  0  0  0  0  0  0  0
   31.7561   35.7114   66.5477 H   0  0  0  0  0  0  0  0  0  0  0  0
   32.9274   39.9118   59.8815 H   0  0  0  0  0  0  0  0  0  0  0  0
   33.5613   39.5653   57.5290 H   0  0  0  0  0  0  0  0  0  0  0  0
  1  2  1  0  0  0  0
  1 16  1  0  0  0  0
  1 17  1  0  0  0  0
  1 18  1  0  0  0  0
  2  3  1  0  0  0  0
  3 15  2  0  0  0  0
  3  4  1  0  0  0  0
  4  5  2  0  0  0  0
  4 19  1  0  0  0  0
  5  6  1  0  0  0  0
  5 20  1  0  0  0  0
  6  7  1  0  0  0  0
  6 14  2  0  0  0  0
  7  8  1  0  0  0  0
  7 21  1  0  0  0  0
  8  9  2  0  0  0  0
  8 10  1  0  0  0  0
 10 11  1  0  0  0  0
 10 22  1  0  0  0  0
 11 12  1  0  0  0  0
 11 13  2  0  0  0  0
 12 23  1  0  0  0  0
 12 24  1  0  0  0  0
 14 15  1  0  0  0  0
 14 25  1  0  0  0  0
 15 26  1  0  0  0  0
M  END
$$$$
