ZINC000000044183      none
 OpenBabel11202420153D

 37 39  0  0  0  0  0  0  0  0999 V2000
   34.1514   32.2491   53.7705 C   0  0  0  0  0  0  0  0  0  0  0  0
   33.7257   32.6907   55.1471 C   0  0  0  0  0  0  0  0  0  0  0  0
   32.4934   32.8340   55.5138 N   0  0  0  0  0  0  0  0  0  0  0  0
   32.4591   33.2453   56.8191 C   0  0  0  0  0  0  0  0  0  0  0  0
   31.3433   33.5113   57.5830 C   0  0  0  0  0  0  0  0  0  0  0  0
   31.4848   33.7901   59.0134 C   0  0  0  0  0  0  0  0  0  0  0  0
   31.4323   32.7441   59.9451 C   0  0  0  0  0  0  0  0  0  0  0  0
   31.5721   33.0145   61.2877 C   0  0  0  0  0  0  0  0  0  0  0  0
   31.7590   34.3171   61.7242 C   0  0  0  0  0  0  0  0  0  0  0  0
   31.8078   35.3594   60.8189 C   0  0  0  0  0  0  0  0  0  0  0  0
   31.6697   35.1099   59.4628 C   0  0  0  0  0  0  0  0  0  0  0  0
   31.7180   36.1328   58.5729 O   0  0  0  0  0  0  0  0  0  0  0  0
   32.5166   37.2636   58.9271 C   0  0  0  0  0  0  0  0  0  0  0  0
   33.0589   37.9069   57.6769 C   0  0  0  0  0  0  0  0  0  0  0  0
   33.3010   39.2678   57.6493 C   0  0  0  0  0  0  0  0  0  0  0  0
   33.8037   39.8574   56.5048 C   0  0  0  0  0  0  0  0  0  0  0  0
   34.0540   39.0874   55.3830 C   0  0  0  0  0  0  0  0  0  0  0  0
   34.6793   39.8285   53.9430 Cl  0  0  0  0  0  0  0  0  0  0  0  0
   33.8062   37.7265   55.4093 C   0  0  0  0  0  0  0  0  0  0  0  0
   33.3088   37.1371   56.5563 C   0  0  0  0  0  0  0  0  0  0  0  0
   33.8692   33.3489   57.2304 C   0  0  0  0  0  0  0  0  0  0  0  0
   34.3007   33.6871   58.3170 O   0  0  0  0  0  0  0  0  0  0  0  0
   34.5800   32.9840   56.1413 O   0  0  0  0  0  0  0  0  0  0  0  0
   34.2765   33.1228   53.1311 H   0  0  0  0  0  0  0  0  0  0  0  0
   35.0963   31.7099   53.8379 H   0  0  0  0  0  0  0  0  0  0  0  0
   33.3893   31.5948   53.3471 H   0  0  0  0  0  0  0  0  0  0  0  0
   30.3645   33.5141   57.1266 H   0  0  0  0  0  0  0  0  0  0  0  0
   31.2868   31.7277   59.6099 H   0  0  0  0  0  0  0  0  0  0  0  0
   31.5363   32.2076   62.0047 H   0  0  0  0  0  0  0  0  0  0  0  0
   31.8675   34.5182   62.7797 H   0  0  0  0  0  0  0  0  0  0  0  0
   31.9540   36.3706   61.1687 H   0  0  0  0  0  0  0  0  0  0  0  0
   31.9055   37.9841   59.4707 H   0  0  0  0  0  0  0  0  0  0  0  0
   33.3447   36.9404   59.5579 H   0  0  0  0  0  0  0  0  0  0  0  0
   33.1014   39.8694   58.5237 H   0  0  0  0  0  0  0  0  0  0  0  0
   33.9970   40.9198   56.4848 H   0  0  0  0  0  0  0  0  0  0  0  0
   34.0018   37.1249   54.5340 H   0  0  0  0  0  0  0  0  0  0  0  0
   33.1150   36.0748   56.5768 H   0  0  0  0  0  0  0  0  0  0  0  0
  1  2  1  0  0  0  0
  1 24  1  0  0  0  0
  1 25  1  0  0  0  0
  1 26  1  0  0  0  0
  2 23  1  0  0  0  0
  2  3  2  0  0  0  0
  3  4  1  0  0  0  0
  4  5  2  0  0  0  0
  4 21  1  0  0  0  0
  5  6  1  0  0  0  0
  5 27  1  0  0  0  0
  6 11  2  0  0  0  0
  6  7  1  0  0  0  0
  7  8  2  0  0  0  0
  7 28  1  0  0  0  0
  8  9  1  0  0  0  0
  8 29  1  0  0  0  0
  9 10  2  0  0  0  0
  9 30  1  0  0  0  0
 10 11  1  0  0  0  0
 10 31  1  0  0  0  0
 11 12  1  0  0  0  0
 12 13  1  0  0  0  0
 13 14  1  0  0  0  0
 13 32  1  0  0  0  0
 13 33  1  0  0  0  0
 14 20  2  0  0  0  0
 14 15  1  0  0  0  0
 15 16  2  0  0  0  0
 15 34  1  0  0  0  0
 16 17  1  0  0  0  0
 16 35  1  0  0  0  0
 17 18  1  0  0  0  0
 17 19  2  0  0  0  0
 19 20  1  0  0  0  0
 19 36  1  0  0  0  0
 20 37  1  0  0  0  0
 21 22  2  0  0  0  0
 21 23  1  0  0  0  0
M  END
$$$$
