ZINC000000047234      none
 OpenBabel11202420153D

 45 47  0  0  1  0  0  0  0  0999 V2000
   30.1914   40.8753   68.5707 C   0  0  0  0  0  0  0  0  0  0  0  0
   29.7599   39.8236   67.5467 C   0  0  0  0  0  0  0  0  0  0  0  0
   29.4573   40.5061   66.2113 C   0  0  0  0  0  0  0  0  0  0  0  0
   30.8382   38.8489   67.3636 N   0  0  0  0  0  0  0  0  0  0  0  0
   30.5463   37.5747   67.0359 C   0  0  0  0  0  0  0  0  0  0  0  0
   29.3909   37.2348   66.8925 O   0  0  0  0  0  0  0  0  0  0  0  0
   31.6555   36.5720   66.8477 C   0  0  1  0  0  0  0  0  0  0  0  0
   31.2293   35.6030   66.5879 H   0  0  0  0  0  0  0  0  0  0  0  0
   32.5808   37.0401   65.7228 C   0  0  0  0  0  0  0  0  0  0  0  0
   31.7937   37.1643   64.4437 C   0  0  0  0  0  0  0  0  0  0  0  0
   31.6900   36.0835   63.5882 C   0  0  0  0  0  0  0  0  0  0  0  0
   30.9640   36.1960   62.4173 C   0  0  0  0  0  0  0  0  0  0  0  0
   30.3500   37.3923   62.0968 C   0  0  0  0  0  0  0  0  0  0  0  0
   30.4580   38.4748   62.9499 C   0  0  0  0  0  0  0  0  0  0  0  0
   31.1798   38.3607   64.1234 C   0  0  0  0  0  0  0  0  0  0  0  0
   32.4208   36.4513   68.0911 N   0  0  0  0  0  0  0  0  0  0  0  0
   33.0736   37.4666   68.6848 C   0  0  0  0  0  0  0  0  0  0  0  0
   33.1213   38.6111   68.2811 O   0  0  0  0  0  0  0  0  0  0  0  0
   33.7237   36.9563   69.9103 C   0  0  0  0  0  0  0  0  0  0  0  0
   34.5107   37.5269   70.8978 C   0  0  0  0  0  0  0  0  0  0  0  0
   34.9739   36.7452   71.9445 C   0  0  0  0  0  0  0  0  0  0  0  0
   34.6561   35.4015   72.0097 C   0  0  0  0  0  0  0  0  0  0  0  0
   33.8698   34.8171   71.0291 C   0  0  0  0  0  0  0  0  0  0  0  0
   33.3996   35.5862   69.9767 C   0  0  0  0  0  0  0  0  0  0  0  0
   32.5636   35.3102   68.7894 C   0  0  0  0  0  0  0  0  0  0  0  0
   32.0853   34.2338   68.4937 O   0  0  0  0  0  0  0  0  0  0  0  0
   31.0856   41.3856   68.2126 H   0  0  0  0  0  0  0  0  0  0  0  0
   29.3891   41.6005   68.7069 H   0  0  0  0  0  0  0  0  0  0  0  0
   30.4071   40.3890   69.5222 H   0  0  0  0  0  0  0  0  0  0  0  0
   28.8658   39.3132   67.9048 H   0  0  0  0  0  0  0  0  0  0  0  0
   29.1499   39.7569   65.4817 H   0  0  0  0  0  0  0  0  0  0  0  0
   28.6550   41.2312   66.3475 H   0  0  0  0  0  0  0  0  0  0  0  0
   30.3513   41.0165   65.8532 H   0  0  0  0  0  0  0  0  0  0  0  0
   31.7622   39.1207   67.4784 H   0  0  0  0  0  0  0  0  0  0  0  0
   33.0073   38.0090   65.9825 H   0  0  0  0  0  0  0  0  0  0  0  0
   33.3830   36.3149   65.5867 H   0  0  0  0  0  0  0  0  0  0  0  0
   32.1733   35.1500   63.8363 H   0  0  0  0  0  0  0  0  0  0  0  0
   30.8799   35.3504   61.7506 H   0  0  0  0  0  0  0  0  0  0  0  0
   29.7865   37.4816   61.1799 H   0  0  0  0  0  0  0  0  0  0  0  0
   29.9787   39.4097   62.6994 H   0  0  0  0  0  0  0  0  0  0  0  0
   31.2644   39.2065   64.7897 H   0  0  0  0  0  0  0  0  0  0  0  0
   34.7618   38.5763   70.8521 H   0  0  0  0  0  0  0  0  0  0  0  0
   35.5836   37.1901   72.7170 H   0  0  0  0  0  0  0  0  0  0  0  0
   35.0232   34.8028   72.8301 H   0  0  0  0  0  0  0  0  0  0  0  0
   33.6243   33.7670   71.0853 H   0  0  0  0  0  0  0  0  0  0  0  0
  1  2  1  0  0  0  0
  1 27  1  0  0  0  0
  1 28  1  0  0  0  0
  1 29  1  0  0  0  0
  2  3  1  0  0  0  0
  2  4  1  0  0  0  0
  2 30  1  0  0  0  0
  3 31  1  0  0  0  0
  3 32  1  0  0  0  0
  3 33  1  0  0  0  0
  4  5  1  0  0  0  0
  4 34  1  0  0  0  0
  5  6  2  0  0  0  0
  5  7  1  0  0  0  0
  7  8  1  6  0  0  0
  7  9  1  0  0  0  0
  7 16  1  0  0  0  0
  9 10  1  0  0  0  0
  9 35  1  0  0  0  0
  9 36  1  0  0  0  0
 10 15  2  0  0  0  0
 10 11  1  0  0  0  0
 11 12  2  0  0  0  0
 11 37  1  0  0  0  0
 12 13  1  0  0  0  0
 12 38  1  0  0  0  0
 13 14  2  0  0  0  0
 13 39  1  0  0  0  0
 14 15  1  0  0  0  0
 14 40  1  0  0  0  0
 15 41  1  0  0  0  0
 16 25  1  0  0  0  0
 16 17  1  0  0  0  0
 17 18  2  0  0  0  0
 17 19  1  0  0  0  0
 19 24  2  0  0  0  0
 19 20  1  0  0  0  0
 20 21  2  0  0  0  0
 20 42  1  0  0  0  0
 21 22  1  0  0  0  0
 21 43  1  0  0  0  0
 22 23  2  0  0  0  0
 22 44  1  0  0  0  0
 23 24  1  0  0  0  0
 23 45  1  0  0  0  0
 24 25  1  0  0  0  0
 25 26  2  0  0  0  0
M  END
$$$$
