ZINC000000049267      none
 OpenBabel11202420153D

 36 39  0  0  0  0  0  0  0  0999 V2000
   30.5802   35.7875   64.6145 O   0  0  0  0  0  0  0  0  0  0  0  0
   30.8639   36.2638   63.5301 C   0  0  0  0  0  0  0  0  0  0  0  0
   31.4031   35.4143   62.4605 C   0  0  0  0  0  0  0  0  0  0  0  0
   31.6097   34.0471   62.6392 C   0  0  0  0  0  0  0  0  0  0  0  0
   32.1185   33.2961   61.6025 C   0  0  0  0  0  0  0  0  0  0  0  0
   32.4267   33.8872   60.3842 C   0  0  0  0  0  0  0  0  0  0  0  0
   32.2303   35.2364   60.1867 C   0  0  0  0  0  0  0  0  0  0  0  0
   31.7164   36.0159   61.2218 C   0  0  0  0  0  0  0  0  0  0  0  0
   31.4879   37.4597   61.0641 C   0  0  0  0  0  0  0  0  0  0  0  0
   31.8046   38.1259   59.7792 C   0  0  0  0  0  0  0  0  0  0  0  0
   33.0725   38.6654   59.5643 C   0  0  0  0  0  0  0  0  0  0  0  0
   33.3631   39.2800   58.3635 C   0  0  0  0  0  0  0  0  0  0  0  0
   32.3965   39.3707   57.3780 C   0  0  0  0  0  0  0  0  0  0  0  0
   31.1353   38.8424   57.5876 C   0  0  0  0  0  0  0  0  0  0  0  0
   30.8344   38.2208   58.7821 C   0  0  0  0  0  0  0  0  0  0  0  0
   31.0042   38.1549   62.0617 N   0  0  0  0  0  0  0  0  0  0  0  0
   30.6883   37.5799   63.2930 N   0  0  0  0  0  0  0  0  0  0  0  0
   30.1706   38.3880   64.3058 C   0  0  0  0  0  0  0  0  0  0  0  0
   30.8470   38.4940   65.5158 C   0  0  0  0  0  0  0  0  0  0  0  0
   30.3250   39.3026   66.5102 C   0  0  0  0  0  0  0  0  0  0  0  0
   29.1345   39.9720   66.2623 C   0  0  0  0  0  0  0  0  0  0  0  0
   28.5134   39.8163   65.0383 C   0  0  0  0  0  0  0  0  0  0  0  0
   29.0373   39.0425   64.1076 N   0  0  0  0  0  0  0  0  0  0  0  0
   31.3727   33.5802   63.5837 H   0  0  0  0  0  0  0  0  0  0  0  0
   32.2794   32.2368   61.7386 H   0  0  0  0  0  0  0  0  0  0  0  0
   32.8245   33.2825   59.5826 H   0  0  0  0  0  0  0  0  0  0  0  0
   32.4727   35.6872   59.2356 H   0  0  0  0  0  0  0  0  0  0  0  0
   33.8264   38.5992   60.3348 H   0  0  0  0  0  0  0  0  0  0  0  0
   34.3459   39.6946   58.1943 H   0  0  0  0  0  0  0  0  0  0  0  0
   32.6274   39.8563   56.4413 H   0  0  0  0  0  0  0  0  0  0  0  0
   30.3845   38.9169   56.8147 H   0  0  0  0  0  0  0  0  0  0  0  0
   29.8495   37.8085   58.9445 H   0  0  0  0  0  0  0  0  0  0  0  0
   31.7694   37.9555   65.6762 H   0  0  0  0  0  0  0  0  0  0  0  0
   30.8303   39.4075   67.4589 H   0  0  0  0  0  0  0  0  0  0  0  0
   28.6980   40.6074   67.0187 H   0  0  0  0  0  0  0  0  0  0  0  0
   27.5867   40.3348   64.8409 H   0  0  0  0  0  0  0  0  0  0  0  0
  1  2  2  0  0  0  0
  2 17  1  0  0  0  0
  2  3  1  0  0  0  0
  3  8  2  0  0  0  0
  3  4  1  0  0  0  0
  4  5  2  0  0  0  0
  4 24  1  0  0  0  0
  5  6  1  0  0  0  0
  5 25  1  0  0  0  0
  6  7  2  0  0  0  0
  6 26  1  0  0  0  0
  7  8  1  0  0  0  0
  7 27  1  0  0  0  0
  8  9  1  0  0  0  0
  9 10  1  0  0  0  0
  9 16  2  0  0  0  0
 10 15  2  0  0  0  0
 10 11  1  0  0  0  0
 11 12  2  0  0  0  0
 11 28  1  0  0  0  0
 12 13  1  0  0  0  0
 12 29  1  0  0  0  0
 13 14  2  0  0  0  0
 13 30  1  0  0  0  0
 14 15  1  0  0  0  0
 14 31  1  0  0  0  0
 15 32  1  0  0  0  0
 16 17  1  0  0  0  0
 17 18  1  0  0  0  0
 18 23  2  0  0  0  0
 18 19  1  0  0  0  0
 19 20  2  0  0  0  0
 19 33  1  0  0  0  0
 20 21  1  0  0  0  0
 20 34  1  0  0  0  0
 21 22  2  0  0  0  0
 21 35  1  0  0  0  0
 22 23  1  0  0  0  0
 22 36  1  0  0  0  0
M  END
$$$$
