ZINC000000028525      none
 OpenBabel11202420163D

 23 24  0  0  0  0  0  0  0  0999 V2000
   33.1600   35.7382   57.7437 O   0  0  0  0  0  0  0  0  0  0  0  0
   33.1700   36.8462   57.2432 C   0  0  0  0  0  0  0  0  0  0  0  0
   33.3005   36.9816   55.9086 N   0  0  0  0  0  0  0  0  0  0  0  0
   33.4244   35.8471   55.0992 C   0  0  0  0  0  0  0  0  0  0  0  0
   32.9465   35.8671   53.7954 C   0  0  0  0  0  0  0  0  0  0  0  0
   33.0746   34.7477   52.9969 C   0  0  0  0  0  0  0  0  0  0  0  0
   33.6694   33.6031   53.4983 C   0  0  0  0  0  0  0  0  0  0  0  0
   33.8229   32.1953   52.4941 Cl  0  0  0  0  0  0  0  0  0  0  0  0
   34.1418   33.5787   54.7988 C   0  0  0  0  0  0  0  0  0  0  0  0
   34.0205   34.6970   55.5999 C   0  0  0  0  0  0  0  0  0  0  0  0
   33.0455   38.0439   58.0980 C   0  0  0  0  0  0  0  0  0  0  0  0
   33.6027   39.3201   57.8459 C   0  0  0  0  0  0  0  0  0  0  0  0
   33.2258   40.0925   58.8917 C   0  0  0  0  0  0  0  0  0  0  0  0
   32.4949   39.3155   59.7198 N   0  0  0  0  0  0  0  0  0  0  0  0
   32.0992   39.6128   60.5540 H   0  0  0  0  0  0  0  0  0  0  0  0
   32.3991   38.1262   59.2440 N   0  0  0  0  0  0  0  0  0  0  0  0
   33.3084   37.8654   55.5091 H   0  0  0  0  0  0  0  0  0  0  0  0
   32.4785   36.7589   53.4049 H   0  0  0  0  0  0  0  0  0  0  0  0
   32.7064   34.7639   51.9817 H   0  0  0  0  0  0  0  0  0  0  0  0
   34.6054   32.6840   55.1877 H   0  0  0  0  0  0  0  0  0  0  0  0
   34.3888   34.6772   56.6150 H   0  0  0  0  0  0  0  0  0  0  0  0
   34.2009   39.6161   56.9968 H   0  0  0  0  0  0  0  0  0  0  0  0
   33.4682   41.1346   59.0387 H   0  0  0  0  0  0  0  0  0  0  0  0
  1  2  2  0  0  0  0
  2  3  1  0  0  0  0
  2 11  1  0  0  0  0
  3  4  1  0  0  0  0
  3 17  1  0  0  0  0
  4 10  2  0  0  0  0
  4  5  1  0  0  0  0
  5  6  2  0  0  0  0
  5 18  1  0  0  0  0
  6  7  1  0  0  0  0
  6 19  1  0  0  0  0
  7  8  1  0  0  0  0
  7  9  2  0  0  0  0
  9 10  1  0  0  0  0
  9 20  1  0  0  0  0
 10 21  1  0  0  0  0
 11 16  2  0  0  0  0
 11 12  1  0  0  0  0
 12 13  2  0  0  0  0
 12 22  1  0  0  0  0
 13 14  1  0  0  0  0
 13 23  1  0  0  0  0
 14 15  1  0  0  0  0
 14 16  1  0  0  0  0
M  END
$$$$
