ZINC000000015872      none
 OpenBabel11202420153D

 27 28  0  0  0  0  0  0  0  0999 V2000
   32.4813   38.9316   59.4619 Cl  0  0  0  0  0  0  0  0  0  0  0  0
   32.4227   37.2295   59.1250 C   0  0  0  0  0  0  0  0  0  0  0  0
   32.8378   36.7527   57.8960 C   0  0  0  0  0  0  0  0  0  0  0  0
   32.7913   35.3971   57.6273 C   0  0  0  0  0  0  0  0  0  0  0  0
   32.3291   34.5143   58.5863 C   0  0  0  0  0  0  0  0  0  0  0  0
   31.9121   34.9839   59.8165 C   0  0  0  0  0  0  0  0  0  0  0  0
   31.9577   36.3446   60.0906 C   0  0  0  0  0  0  0  0  0  0  0  0
   31.5374   36.8228   61.3347 N   0  0  0  0  0  0  0  0  0  0  0  0
   32.3935   36.3089   62.4131 C   0  0  0  0  0  0  0  0  0  0  0  0
   31.9379   36.9017   63.7483 C   0  0  0  0  0  0  0  0  0  0  0  0
   30.5372   36.5345   63.9947 N   0  3  0  0  0  0  0  0  0  0  0  0
   30.2408   36.9151   64.8810 H   0  0  0  0  0  0  0  0  0  0  0  0
   30.4517   35.5293   64.0153 H   0  0  0  0  0  0  0  0  0  0  0  0
   29.6915   37.0756   62.9226 C   0  0  0  0  0  0  0  0  0  0  0  0
   30.1285   36.4842   61.5804 C   0  0  0  0  0  0  0  0  0  0  0  0
   33.1993   37.4394   57.1449 H   0  0  0  0  0  0  0  0  0  0  0  0
   33.1124   35.0274   56.6648 H   0  0  0  0  0  0  0  0  0  0  0  0
   32.2941   33.4561   58.3729 H   0  0  0  0  0  0  0  0  0  0  0  0
   31.5510   34.2936   60.5644 H   0  0  0  0  0  0  0  0  0  0  0  0
   32.3162   35.2224   62.4522 H   0  0  0  0  0  0  0  0  0  0  0  0
   33.4284   36.5936   62.2230 H   0  0  0  0  0  0  0  0  0  0  0  0
   32.0282   37.9873   63.7135 H   0  0  0  0  0  0  0  0  0  0  0  0
   32.5626   36.5106   64.5515 H   0  0  0  0  0  0  0  0  0  0  0  0
   29.7934   38.1604   62.8920 H   0  0  0  0  0  0  0  0  0  0  0  0
   28.6508   36.8137   63.1134 H   0  0  0  0  0  0  0  0  0  0  0  0
   29.5108   36.8971   60.7828 H   0  0  0  0  0  0  0  0  0  0  0  0
   30.0137   35.4007   61.6055 H   0  0  0  0  0  0  0  0  0  0  0  0
  1  2  1  0  0  0  0
  2  7  2  0  0  0  0
  2  3  1  0  0  0  0
  3  4  2  0  0  0  0
  3 16  1  0  0  0  0
  4  5  1  0  0  0  0
  4 17  1  0  0  0  0
  5  6  2  0  0  0  0
  5 18  1  0  0  0  0
  6  7  1  0  0  0  0
  6 19  1  0  0  0  0
  7  8  1  0  0  0  0
  8 15  1  0  0  0  0
  8  9  1  0  0  0  0
  9 10  1  0  0  0  0
  9 20  1  0  0  0  0
  9 21  1  0  0  0  0
 10 11  1  0  0  0  0
 10 22  1  0  0  0  0
 10 23  1  0  0  0  0
 11 12  1  0  0  0  0
 11 13  1  0  0  0  0
 11 14  1  0  0  0  0
 14 15  1  0  0  0  0
 14 24  1  0  0  0  0
 14 25  1  0  0  0  0
 15 26  1  0  0  0  0
 15 27  1  0  0  0  0
M  CHG  1  11   1
M  END
$$$$
