ZINC000000029209      none
 OpenBabel11202420163D

 26 27  0  0  0  0  0  0  0  0999 V2000
   32.6432   36.2822   61.6301 O   0  0  0  0  0  0  0  0  0  0  0  0
   32.2400   37.4095   61.8407 C   0  0  0  0  0  0  0  0  0  0  0  0
   32.1356   38.2888   60.8245 N   0  0  0  0  0  0  0  0  0  0  0  0
   32.4914   37.9038   59.5268 C   0  0  0  0  0  0  0  0  0  0  0  0
   32.9806   38.8460   58.6316 C   0  0  0  0  0  0  0  0  0  0  0  0
   33.3362   38.4629   57.3531 C   0  0  0  0  0  0  0  0  0  0  0  0
   33.1952   37.1426   56.9605 C   0  0  0  0  0  0  0  0  0  0  0  0
   33.5387   36.7710   55.7079 F   0  0  0  0  0  0  0  0  0  0  0  0
   32.7022   36.2025   57.8498 C   0  0  0  0  0  0  0  0  0  0  0  0
   32.3504   36.5802   59.1309 C   0  0  0  0  0  0  0  0  0  0  0  0
   31.8641   37.8160   63.2112 C   0  0  0  0  0  0  0  0  0  0  0  0
   30.9178   38.8230   63.4091 C   0  0  0  0  0  0  0  0  0  0  0  0
   30.5672   39.1936   64.6908 C   0  0  0  0  0  0  0  0  0  0  0  0
   31.1598   38.5775   65.7789 C   0  0  0  0  0  0  0  0  0  0  0  0
   32.1026   37.5828   65.5898 C   0  0  0  0  0  0  0  0  0  0  0  0
   32.4580   37.1987   64.3133 C   0  0  0  0  0  0  0  0  0  0  0  0
   31.8139   39.1883   60.9925 H   0  0  0  0  0  0  0  0  0  0  0  0
   33.0869   39.8767   58.9361 H   0  0  0  0  0  0  0  0  0  0  0  0
   33.7205   39.1946   56.6579 H   0  0  0  0  0  0  0  0  0  0  0  0
   32.5923   35.1733   57.5414 H   0  0  0  0  0  0  0  0  0  0  0  0
   31.9656   35.8469   59.8241 H   0  0  0  0  0  0  0  0  0  0  0  0
   30.4578   39.3077   62.5606 H   0  0  0  0  0  0  0  0  0  0  0  0
   29.8320   39.9694   64.8452 H   0  0  0  0  0  0  0  0  0  0  0  0
   30.8853   38.8747   66.7803 H   0  0  0  0  0  0  0  0  0  0  0  0
   32.5616   37.1062   66.4433 H   0  0  0  0  0  0  0  0  0  0  0  0
   33.1944   36.4224   64.1670 H   0  0  0  0  0  0  0  0  0  0  0  0
  1  2  2  0  0  0  0
  2  3  1  0  0  0  0
  2 11  1  0  0  0  0
  3  4  1  0  0  0  0
  3 17  1  0  0  0  0
  4 10  2  0  0  0  0
  4  5  1  0  0  0  0
  5  6  2  0  0  0  0
  5 18  1  0  0  0  0
  6  7  1  0  0  0  0
  6 19  1  0  0  0  0
  7  8  1  0  0  0  0
  7  9  2  0  0  0  0
  9 10  1  0  0  0  0
  9 20  1  0  0  0  0
 10 21  1  0  0  0  0
 11 16  2  0  0  0  0
 11 12  1  0  0  0  0
 12 13  2  0  0  0  0
 12 22  1  0  0  0  0
 13 14  1  0  0  0  0
 13 23  1  0  0  0  0
 14 15  2  0  0  0  0
 14 24  1  0  0  0  0
 15 16  1  0  0  0  0
 15 25  1  0  0  0  0
 16 26  1  0  0  0  0
M  END
$$$$
