ZINC000000029464      none
 OpenBabel11202420163D

 30 31  0  0  0  0  0  0  0  0999 V2000
   29.3846   36.3273   60.9013 C   0  0  0  0  0  0  0  0  0  0  0  0
   30.5741   35.6402   61.4102 N   0  0  0  0  0  0  0  0  0  0  0  0
   30.8297   35.6105   62.7830 C   0  0  0  0  0  0  0  0  0  0  0  0
   29.9117   35.0309   63.6497 C   0  0  0  0  0  0  0  0  0  0  0  0
   30.1678   35.0028   65.0065 C   0  0  0  0  0  0  0  0  0  0  0  0
   31.3364   35.5511   65.5027 C   0  0  0  0  0  0  0  0  0  0  0  0
   32.2523   36.1289   64.6428 C   0  0  0  0  0  0  0  0  0  0  0  0
   32.0025   36.1602   63.2848 C   0  0  0  0  0  0  0  0  0  0  0  0
   31.6158   34.8987   60.3579 S   0  0  0  0  0  0  0  0  0  0  0  0
   32.7265   34.4657   61.1313 O   0  0  0  0  0  0  0  0  0  0  0  0
   30.8287   34.0182   59.5676 O   0  0  0  0  0  0  0  0  0  0  0  0
   32.2240   36.1396   59.2648 C   0  0  0  0  0  0  0  0  0  0  0  0
   32.5853   35.8051   57.9730 C   0  0  0  0  0  0  0  0  0  0  0  0
   33.0571   36.7787   57.1129 C   0  0  0  0  0  0  0  0  0  0  0  0
   33.1790   38.0871   57.5492 C   0  0  0  0  0  0  0  0  0  0  0  0
   33.6463   39.0383   56.7114 F   0  0  0  0  0  0  0  0  0  0  0  0
   32.8222   38.4196   58.8450 C   0  0  0  0  0  0  0  0  0  0  0  0
   32.3450   37.4457   59.7014 C   0  0  0  0  0  0  0  0  0  0  0  0
   29.6279   37.3694   60.6937 H   0  0  0  0  0  0  0  0  0  0  0  0
   29.0497   35.8428   59.9841 H   0  0  0  0  0  0  0  0  0  0  0  0
   28.5912   36.2811   61.6472 H   0  0  0  0  0  0  0  0  0  0  0  0
   28.9968   34.6065   63.2633 H   0  0  0  0  0  0  0  0  0  0  0  0
   29.4545   34.5523   65.6808 H   0  0  0  0  0  0  0  0  0  0  0  0
   31.5340   35.5278   66.5641 H   0  0  0  0  0  0  0  0  0  0  0  0
   33.1642   36.5557   65.0335 H   0  0  0  0  0  0  0  0  0  0  0  0
   32.7182   36.6120   62.6139 H   0  0  0  0  0  0  0  0  0  0  0  0
   32.4949   34.7836   57.6344 H   0  0  0  0  0  0  0  0  0  0  0  0
   33.3354   36.5180   56.1025 H   0  0  0  0  0  0  0  0  0  0  0  0
   32.9173   39.4398   59.1866 H   0  0  0  0  0  0  0  0  0  0  0  0
   32.0666   37.7049   60.7122 H   0  0  0  0  0  0  0  0  0  0  0  0
  1  2  1  0  0  0  0
  1 19  1  0  0  0  0
  1 20  1  0  0  0  0
  1 21  1  0  0  0  0
  2  3  1  0  0  0  0
  2  9  1  0  0  0  0
  3  8  2  0  0  0  0
  3  4  1  0  0  0  0
  4  5  2  0  0  0  0
  4 22  1  0  0  0  0
  5  6  1  0  0  0  0
  5 23  1  0  0  0  0
  6  7  2  0  0  0  0
  6 24  1  0  0  0  0
  7  8  1  0  0  0  0
  7 25  1  0  0  0  0
  8 26  1  0  0  0  0
  9 10  2  0  0  0  0
  9 11  2  0  0  0  0
  9 12  1  0  0  0  0
 12 18  2  0  0  0  0
 12 13  1  0  0  0  0
 13 14  2  0  0  0  0
 13 27  1  0  0  0  0
 14 15  1  0  0  0  0
 14 28  1  0  0  0  0
 15 16  1  0  0  0  0
 15 17  2  0  0  0  0
 17 18  1  0  0  0  0
 17 29  1  0  0  0  0
 18 30  1  0  0  0  0
M  END
$$$$
