ZINC000000030854      none
 OpenBabel11202420163D

 34 34  0  0  0  0  0  0  0  0999 V2000
   33.8541   38.8791   55.6710 C   0  0  0  0  0  0  0  0  0  0  0  0
   33.6686   37.4642   56.2230 C   0  0  0  0  0  0  0  0  0  0  0  0
   32.7723   36.6614   55.2780 C   0  0  0  0  0  0  0  0  0  0  0  0
   33.0262   37.5363   57.5844 C   0  0  0  0  0  0  0  0  0  0  0  0
   33.2510   38.6331   58.3960 C   0  0  0  0  0  0  0  0  0  0  0  0
   32.6594   38.7050   59.6418 C   0  0  0  0  0  0  0  0  0  0  0  0
   31.8468   37.6686   60.0839 C   0  0  0  0  0  0  0  0  0  0  0  0
   31.2519   37.7353   61.3459 N   0  0  0  0  0  0  0  0  0  0  0  0
   32.0413   37.1236   62.6668 S   0  0  0  0  0  0  0  0  0  0  0  0
   33.4249   37.1243   62.3433 O   0  0  0  0  0  0  0  0  0  0  0  0
   31.5076   37.7951   63.7997 O   0  0  0  0  0  0  0  0  0  0  0  0
   31.5958   35.5352   62.8119 N   0  0  0  0  0  0  0  0  0  0  0  0
   32.3721   34.4921   62.1367 C   0  0  0  0  0  0  0  0  0  0  0  0
   30.4256   35.1730   63.6154 C   0  0  0  0  0  0  0  0  0  0  0  0
   31.6278   36.5658   59.2683 C   0  0  0  0  0  0  0  0  0  0  0  0
   32.2179   36.5029   58.0213 C   0  0  0  0  0  0  0  0  0  0  0  0
   34.4926   39.4509   56.3442 H   0  0  0  0  0  0  0  0  0  0  0  0
   34.3187   38.8268   54.6864 H   0  0  0  0  0  0  0  0  0  0  0  0
   32.8830   39.3673   55.5891 H   0  0  0  0  0  0  0  0  0  0  0  0
   34.6397   36.9760   56.3050 H   0  0  0  0  0  0  0  0  0  0  0  0
   32.6402   35.6535   55.6713 H   0  0  0  0  0  0  0  0  0  0  0  0
   31.8012   37.1497   55.1961 H   0  0  0  0  0  0  0  0  0  0  0  0
   33.2369   36.6093   54.2934 H   0  0  0  0  0  0  0  0  0  0  0  0
   33.8867   39.4363   58.0536 H   0  0  0  0  0  0  0  0  0  0  0  0
   32.8319   39.5638   60.2735 H   0  0  0  0  0  0  0  0  0  0  0  0
   30.3763   38.1399   61.4485 H   0  0  0  0  0  0  0  0  0  0  0  0
   33.1631   34.1414   62.7995 H   0  0  0  0  0  0  0  0  0  0  0  0
   31.7166   33.6596   61.8809 H   0  0  0  0  0  0  0  0  0  0  0  0
   32.8139   34.8993   61.2272 H   0  0  0  0  0  0  0  0  0  0  0  0
   29.5564   35.7278   63.2619 H   0  0  0  0  0  0  0  0  0  0  0  0
   30.2371   34.1035   63.5213 H   0  0  0  0  0  0  0  0  0  0  0  0
   30.6126   35.4183   64.6609 H   0  0  0  0  0  0  0  0  0  0  0  0
   30.9968   35.7582   59.6091 H   0  0  0  0  0  0  0  0  0  0  0  0
   32.0482   35.6456   57.3868 H   0  0  0  0  0  0  0  0  0  0  0  0
  1  2  1  0  0  0  0
  1 17  1  0  0  0  0
  1 18  1  0  0  0  0
  1 19  1  0  0  0  0
  2  3  1  0  0  0  0
  2  4  1  0  0  0  0
  2 20  1  0  0  0  0
  3 21  1  0  0  0  0
  3 22  1  0  0  0  0
  3 23  1  0  0  0  0
  4 16  2  0  0  0  0
  4  5  1  0  0  0  0
  5  6  2  0  0  0  0
  5 24  1  0  0  0  0
  6  7  1  0  0  0  0
  6 25  1  0  0  0  0
  7  8  1  0  0  0  0
  7 15  2  0  0  0  0
  8  9  1  0  0  0  0
  8 26  1  0  0  0  0
  9 10  2  0  0  0  0
  9 11  2  0  0  0  0
  9 12  1  0  0  0  0
 12 13  1  0  0  0  0
 12 14  1  0  0  0  0
 13 27  1  0  0  0  0
 13 28  1  0  0  0  0
 13 29  1  0  0  0  0
 14 30  1  0  0  0  0
 14 31  1  0  0  0  0
 14 32  1  0  0  0  0
 15 16  1  0  0  0  0
 15 33  1  0  0  0  0
 16 34  1  0  0  0  0
M  END
$$$$
