ZINC000000006421      none
 OpenBabel11202420153D

 26 27  0  0  1  0  0  0  0  0999 V2000
   28.5498   37.1318   62.5100 C   0  0  0  0  0  0  0  0  0  0  0  0
   30.0009   36.8052   62.2680 C   0  0  0  0  0  0  0  0  0  0  0  0
   30.7179   36.5034   63.1985 O   0  0  0  0  0  0  0  0  0  0  0  0
   30.5020   36.8487   61.0176 N   0  0  0  0  0  0  0  0  0  0  0  0
   31.9127   36.5312   60.7824 C   0  0  1  0  0  0  0  0  0  0  0  0
   32.5152   36.8301   61.6402 H   0  0  0  0  0  0  0  0  0  0  0  0
   32.0834   35.0220   60.5079 C   0  0  0  0  0  0  0  0  0  0  0  0
   31.9991   34.9537   58.9682 C   0  0  0  0  0  0  0  0  0  0  0  0
   32.4559   36.3138   58.4859 C   0  0  0  0  0  0  0  0  0  0  0  0
   32.8812   36.7258   57.2338 C   0  0  0  0  0  0  0  0  0  0  0  0
   33.2556   38.0385   57.0242 C   0  0  0  0  0  0  0  0  0  0  0  0
   33.2060   38.9451   58.0668 C   0  0  0  0  0  0  0  0  0  0  0  0
   32.7821   38.5362   59.3159 C   0  0  0  0  0  0  0  0  0  0  0  0
   32.4062   37.2202   59.5282 C   0  0  0  0  0  0  0  0  0  0  0  0
   28.0697   37.3774   61.5627 H   0  0  0  0  0  0  0  0  0  0  0  0
   28.0530   36.2705   62.9565 H   0  0  0  0  0  0  0  0  0  0  0  0
   28.4769   37.9839   63.1858 H   0  0  0  0  0  0  0  0  0  0  0  0
   29.9286   37.0901   60.2735 H   0  0  0  0  0  0  0  0  0  0  0  0
   33.0541   34.6717   60.8587 H   0  0  0  0  0  0  0  0  0  0  0  0
   31.2756   34.4511   60.9659 H   0  0  0  0  0  0  0  0  0  0  0  0
   32.6606   34.1756   58.5874 H   0  0  0  0  0  0  0  0  0  0  0  0
   30.9725   34.7659   58.6536 H   0  0  0  0  0  0  0  0  0  0  0  0
   32.9206   36.0181   56.4190 H   0  0  0  0  0  0  0  0  0  0  0  0
   33.5865   38.3565   56.0465 H   0  0  0  0  0  0  0  0  0  0  0  0
   33.4987   39.9720   57.9046 H   0  0  0  0  0  0  0  0  0  0  0  0
   32.7435   39.2449   60.1299 H   0  0  0  0  0  0  0  0  0  0  0  0
  1  2  1  0  0  0  0
  1 15  1  0  0  0  0
  1 16  1  0  0  0  0
  1 17  1  0  0  0  0
  2  3  2  0  0  0  0
  2  4  1  0  0  0  0
  4  5  1  0  0  0  0
  4 18  1  0  0  0  0
  5  6  1  1  0  0  0
  5 14  1  0  0  0  0
  5  7  1  0  0  0  0
  7  8  1  0  0  0  0
  7 19  1  0  0  0  0
  7 20  1  0  0  0  0
  8  9  1  0  0  0  0
  8 21  1  0  0  0  0
  8 22  1  0  0  0  0
  9 14  2  0  0  0  0
  9 10  1  0  0  0  0
 10 11  2  0  0  0  0
 10 23  1  0  0  0  0
 11 12  1  0  0  0  0
 11 24  1  0  0  0  0
 12 13  2  0  0  0  0
 12 25  1  0  0  0  0
 13 14  1  0  0  0  0
 13 26  1  0  0  0  0
M  END
$$$$
