ZINC000000032330      none
 OpenBabel11202420153D

 15 15  0  0  0  0  0  0  0  0999 V2000
   32.1103   34.8717   59.1470 C   0  0  0  0  0  0  0  0  0  0  0  0
   32.2127   36.3027   59.6085 C   0  0  0  0  0  0  0  0  0  0  0  0
   32.6497   37.2735   58.7477 N   0  0  0  0  0  0  0  0  0  0  0  0
   32.8929   37.0361   57.8392 H   0  0  0  0  0  0  0  0  0  0  0  0
   32.7393   38.5548   59.1484 C   0  0  0  0  0  0  0  0  0  0  0  0
   33.1250   39.4017   58.3659 O   0  0  0  0  0  0  0  0  0  0  0  0
   32.4079   38.9124   60.4028 N   0  0  0  0  0  0  0  0  0  0  0  0
   32.4785   39.8407   60.6751 H   0  0  0  0  0  0  0  0  0  0  0  0
   31.9776   37.9857   61.2828 C   0  0  0  0  0  0  0  0  0  0  0  0
   31.6775   38.3087   62.4179 O   0  0  0  0  0  0  0  0  0  0  0  0
   31.8782   36.6330   60.8746 C   0  0  0  0  0  0  0  0  0  0  0  0
   31.2778   35.3088   62.0837 Br  0  0  0  0  0  0  0  0  0  0  0  0
   33.0533   34.3598   59.3386 H   0  0  0  0  0  0  0  0  0  0  0  0
   31.3085   34.3714   59.6900 H   0  0  0  0  0  0  0  0  0  0  0  0
   31.8950   34.8490   58.0787 H   0  0  0  0  0  0  0  0  0  0  0  0
  1  2  1  0  0  0  0
  1 13  1  0  0  0  0
  1 14  1  0  0  0  0
  1 15  1  0  0  0  0
  2 11  2  0  0  0  0
  2  3  1  0  0  0  0
  3  4  1  0  0  0  0
  3  5  1  0  0  0  0
  5  6  2  0  0  0  0
  5  7  1  0  0  0  0
  7  8  1  0  0  0  0
  7  9  1  0  0  0  0
  9 10  2  0  0  0  0
  9 11  1  0  0  0  0
 11 12  1  0  0  0  0
M  END
$$$$
