ZINC000000024188      none
 OpenBabel11202420153D

 25 27  0  0  0  0  0  0  0  0999 V2000
   33.2855   40.7337   58.8287 N   0  0  0  0  0  0  0  0  0  0  0  0
   33.3834   39.8523   57.7704 C   0  0  0  0  0  0  0  0  0  0  0  0
   33.4953   40.1711   56.5021 N   0  0  0  0  0  0  0  0  0  0  0  0
   33.5627   39.0983   55.7952 N   0  0  0  0  0  0  0  0  0  0  0  0
   33.4966   38.0528   56.5832 C   0  0  0  0  0  0  0  0  0  0  0  0
   33.5405   36.6373   56.1635 C   0  0  0  0  0  0  0  0  0  0  0  0
   33.4521   35.6195   57.1307 C   0  0  0  0  0  0  0  0  0  0  0  0
   33.4900   34.3117   56.7699 C   0  0  0  0  0  0  0  0  0  0  0  0
   33.6191   33.9588   55.4139 C   0  0  0  0  0  0  0  0  0  0  0  0
   33.6605   32.6119   55.0165 C   0  0  0  0  0  0  0  0  0  0  0  0
   33.7855   32.3011   53.6969 C   0  0  0  0  0  0  0  0  0  0  0  0
   33.8732   33.3001   52.7291 C   0  0  0  0  0  0  0  0  0  0  0  0
   33.8370   34.6156   53.0758 C   0  0  0  0  0  0  0  0  0  0  0  0
   33.7085   34.9754   54.4294 C   0  0  0  0  0  0  0  0  0  0  0  0
   33.6624   36.3220   54.8203 C   0  0  0  0  0  0  0  0  0  0  0  0
   33.3876   38.5087   57.8507 O   0  0  0  0  0  0  0  0  0  0  0  0
   33.2958   41.6899   58.6661 H   0  0  0  0  0  0  0  0  0  0  0  0
   33.2024   40.3967   59.7345 H   0  0  0  0  0  0  0  0  0  0  0  0
   33.3534   35.8822   58.1735 H   0  0  0  0  0  0  0  0  0  0  0  0
   33.4216   33.5415   57.5240 H   0  0  0  0  0  0  0  0  0  0  0  0
   33.5937   31.8265   55.7547 H   0  0  0  0  0  0  0  0  0  0  0  0
   33.8170   31.2645   53.3955 H   0  0  0  0  0  0  0  0  0  0  0  0
   33.9714   33.0263   51.6891 H   0  0  0  0  0  0  0  0  0  0  0  0
   33.9063   35.3793   52.3153 H   0  0  0  0  0  0  0  0  0  0  0  0
   33.7253   37.1064   54.0805 H   0  0  0  0  0  0  0  0  0  0  0  0
  1  2  1  0  0  0  0
  1 17  1  0  0  0  0
  1 18  1  0  0  0  0
  2 16  1  0  0  0  0
  2  3  2  0  0  0  0
  3  4  1  0  0  0  0
  4  5  2  0  0  0  0
  5  6  1  0  0  0  0
  5 16  1  0  0  0  0
  6 15  2  0  0  0  0
  6  7  1  0  0  0  0
  7  8  2  0  0  0  0
  7 19  1  0  0  0  0
  8  9  1  0  0  0  0
  8 20  1  0  0  0  0
  9 14  2  0  0  0  0
  9 10  1  0  0  0  0
 10 11  2  0  0  0  0
 10 21  1  0  0  0  0
 11 12  1  0  0  0  0
 11 22  1  0  0  0  0
 12 13  2  0  0  0  0
 12 23  1  0  0  0  0
 13 14  1  0  0  0  0
 13 24  1  0  0  0  0
 14 15  1  0  0  0  0
 15 25  1  0  0  0  0
M  END
$$$$
