ZINC000000029212      none
 OpenBabel11202420163D

 29 30  0  0  0  0  0  0  0  0999 V2000
   32.4848   35.0980   58.8239 C   0  0  0  0  0  0  0  0  0  0  0  0
   32.4928   36.4752   58.3244 N   0  0  0  0  0  0  0  0  0  0  0  0
   32.0244   37.4751   59.0973 C   0  0  0  0  0  0  0  0  0  0  0  0
   32.0311   38.6179   58.6829 O   0  0  0  0  0  0  0  0  0  0  0  0
   31.5025   37.1821   60.4489 C   0  0  0  0  0  0  0  0  0  0  0  0
   30.1511   36.8820   60.6286 C   0  0  0  0  0  0  0  0  0  0  0  0
   29.6705   36.6091   61.8926 C   0  0  0  0  0  0  0  0  0  0  0  0
   30.5249   36.6319   62.9807 C   0  0  0  0  0  0  0  0  0  0  0  0
   31.8653   36.9290   62.8096 C   0  0  0  0  0  0  0  0  0  0  0  0
   32.3588   37.2038   61.5510 C   0  0  0  0  0  0  0  0  0  0  0  0
   32.9866   36.7524   57.0458 C   0  0  0  0  0  0  0  0  0  0  0  0
   33.5712   37.9833   56.7772 C   0  0  0  0  0  0  0  0  0  0  0  0
   34.0625   38.2519   55.5147 C   0  0  0  0  0  0  0  0  0  0  0  0
   33.9632   37.3009   54.5156 C   0  0  0  0  0  0  0  0  0  0  0  0
   33.3770   36.0763   54.7784 C   0  0  0  0  0  0  0  0  0  0  0  0
   32.8884   35.7996   56.0401 C   0  0  0  0  0  0  0  0  0  0  0  0
   31.5823   34.5923   58.4805 H   0  0  0  0  0  0  0  0  0  0  0  0
   33.3619   34.5705   58.4491 H   0  0  0  0  0  0  0  0  0  0  0  0
   32.5041   35.1066   59.9136 H   0  0  0  0  0  0  0  0  0  0  0  0
   29.4824   36.8679   59.7807 H   0  0  0  0  0  0  0  0  0  0  0  0
   28.6252   36.3771   62.0331 H   0  0  0  0  0  0  0  0  0  0  0  0
   30.1437   36.4171   63.9681 H   0  0  0  0  0  0  0  0  0  0  0  0
   32.5268   36.9456   63.6631 H   0  0  0  0  0  0  0  0  0  0  0  0
   33.4054   37.4357   61.4187 H   0  0  0  0  0  0  0  0  0  0  0  0
   33.6451   38.7281   57.5558 H   0  0  0  0  0  0  0  0  0  0  0  0
   34.5213   39.2072   55.3064 H   0  0  0  0  0  0  0  0  0  0  0  0
   34.3439   37.5153   53.5280 H   0  0  0  0  0  0  0  0  0  0  0  0
   33.3009   35.3358   53.9959 H   0  0  0  0  0  0  0  0  0  0  0  0
   32.4300   34.8431   56.2444 H   0  0  0  0  0  0  0  0  0  0  0  0
  1  2  1  0  0  0  0
  1 17  1  0  0  0  0
  1 18  1  0  0  0  0
  1 19  1  0  0  0  0
  2  3  1  0  0  0  0
  2 11  1  0  0  0  0
  3  4  2  0  0  0  0
  3  5  1  0  0  0  0
  5 10  2  0  0  0  0
  5  6  1  0  0  0  0
  6  7  2  0  0  0  0
  6 20  1  0  0  0  0
  7  8  1  0  0  0  0
  7 21  1  0  0  0  0
  8  9  2  0  0  0  0
  8 22  1  0  0  0  0
  9 10  1  0  0  0  0
  9 23  1  0  0  0  0
 10 24  1  0  0  0  0
 11 16  2  0  0  0  0
 11 12  1  0  0  0  0
 12 13  2  0  0  0  0
 12 25  1  0  0  0  0
 13 14  1  0  0  0  0
 13 26  1  0  0  0  0
 14 15  2  0  0  0  0
 14 27  1  0  0  0  0
 15 16  1  0  0  0  0
 15 28  1  0  0  0  0
 16 29  1  0  0  0  0
M  END
$$$$
