ZINC000000001962      none
 OpenBabel11202420153D

 27 28  0  0  0  0  0  0  0  0999 V2000
   32.9241   38.9823   57.7964 C   0  0  0  0  0  0  0  0  0  0  0  0
   32.8849   37.5201   57.8795 N   0  0  0  0  0  0  0  0  0  0  0  0
   32.5178   36.7782   58.9696 C   0  0  0  0  0  0  0  0  0  0  0  0
   32.0854   37.2986   60.2863 N   0  0  0  0  0  0  0  0  0  0  0  0
   31.7834   36.5253   61.1775 O   0  0  0  0  0  0  0  0  0  0  0  0
   32.0318   38.5002   60.4785 O   0  0  0  0  0  0  0  0  0  0  0  0
   32.6249   35.4838   58.6139 C   0  0  0  0  0  0  0  0  0  0  0  0
   33.0414   35.4367   57.3397 N   0  0  0  0  0  0  0  0  0  0  0  0
   33.2039   36.6528   56.8949 C   0  0  0  0  0  0  0  0  0  0  0  0
   33.6649   37.0271   55.5099 C   0  0  0  0  0  0  0  0  0  0  0  0
   32.7879   36.0147   54.2865 S   0  0  0  0  0  0  0  0  0  0  0  0
   33.6688   34.4893   54.3296 C   0  0  0  0  0  0  0  0  0  0  0  0
   33.2745   33.4412   53.5029 C   0  0  0  0  0  0  0  0  0  0  0  0
   33.9745   32.2496   53.5474 C   0  0  0  0  0  0  0  0  0  0  0  0
   35.0500   32.1447   54.4203 C   0  0  0  0  0  0  0  0  0  0  0  0
   35.3863   33.2242   55.2120 C   0  0  0  0  0  0  0  0  0  0  0  0
   34.7003   34.3498   55.1488 N   0  0  0  0  0  0  0  0  0  0  0  0
   31.9582   39.3527   57.4529 H   0  0  0  0  0  0  0  0  0  0  0  0
   33.1429   39.3964   58.7807 H   0  0  0  0  0  0  0  0  0  0  0  0
   33.7003   39.2856   57.0938 H   0  0  0  0  0  0  0  0  0  0  0  0
   32.4095   34.6327   59.2429 H   0  0  0  0  0  0  0  0  0  0  0  0
   34.7374   36.8525   55.4242 H   0  0  0  0  0  0  0  0  0  0  0  0
   33.4528   38.0808   55.3286 H   0  0  0  0  0  0  0  0  0  0  0  0
   32.4328   33.5570   52.8359 H   0  0  0  0  0  0  0  0  0  0  0  0
   33.6914   31.4190   52.9179 H   0  0  0  0  0  0  0  0  0  0  0  0
   35.6175   31.2277   54.4787 H   0  0  0  0  0  0  0  0  0  0  0  0
   36.2245   33.1482   55.8887 H   0  0  0  0  0  0  0  0  0  0  0  0
  1  2  1  0  0  0  0
  1 18  1  0  0  0  0
  1 19  1  0  0  0  0
  1 20  1  0  0  0  0
  2  9  1  0  0  0  0
  2  3  1  0  0  0  0
  3  4  1  0  0  0  0
  3  7  2  0  0  0  0
  4  5  2  0  0  0  0
  4  6  2  0  0  0  0
  7  8  1  0  0  0  0
  7 21  1  0  0  0  0
  8  9  2  0  0  0  0
  9 10  1  0  0  0  0
 10 11  1  0  0  0  0
 10 22  1  0  0  0  0
 10 23  1  0  0  0  0
 11 12  1  0  0  0  0
 12 17  2  0  0  0  0
 12 13  1  0  0  0  0
 13 14  2  0  0  0  0
 13 24  1  0  0  0  0
 14 15  1  0  0  0  0
 14 25  1  0  0  0  0
 15 16  2  0  0  0  0
 15 26  1  0  0  0  0
 16 17  1  0  0  0  0
 16 27  1  0  0  0  0
M  END
$$$$
