ZINC000000037047      none
 OpenBabel11202420153D

 26 27  0  0  0  0  0  0  0  0999 V2000
   34.1112   39.8830   55.9642 C   0  0  0  0  0  0  0  0  0  0  0  0
   33.5804   38.7848   56.8491 C   0  0  0  0  0  0  0  0  0  0  0  0
   33.2071   39.0651   58.1502 C   0  0  0  0  0  0  0  0  0  0  0  0
   32.7148   38.0588   58.9601 C   0  0  0  0  0  0  0  0  0  0  0  0
   32.6009   36.7711   58.4706 C   0  0  0  0  0  0  0  0  0  0  0  0
   32.0643   35.6740   59.3536 C   0  0  0  0  0  0  0  0  0  0  0  0
   31.7378   36.2238   60.6717 N   0  0  0  0  0  0  0  0  0  0  0  0
   30.5580   36.7376   61.0607 C   0  0  0  0  0  0  0  0  0  0  0  0
   30.6728   37.1199   62.3067 N   0  0  0  0  0  0  0  0  0  0  0  0
   31.9055   36.8677   62.7452 C   0  0  0  0  0  0  0  0  0  0  0  0
   32.4115   37.1607   64.1050 N   0  0  0  0  0  0  0  0  0  0  0  0
   31.6781   37.6757   64.9297 O   0  0  0  0  0  0  0  0  0  0  0  0
   33.5613   36.8868   64.3991 O   0  0  0  0  0  0  0  0  0  0  0  0
   32.5935   36.3133   61.7818 N   0  0  0  0  0  0  0  0  0  0  0  0
   32.9796   36.4895   57.1713 C   0  0  0  0  0  0  0  0  0  0  0  0
   33.4718   37.4958   56.3614 C   0  0  0  0  0  0  0  0  0  0  0  0
   35.1945   39.9425   56.0692 H   0  0  0  0  0  0  0  0  0  0  0  0
   33.8581   39.6674   54.9261 H   0  0  0  0  0  0  0  0  0  0  0  0
   33.6650   40.8333   56.2572 H   0  0  0  0  0  0  0  0  0  0  0  0
   33.2957   40.0713   58.5326 H   0  0  0  0  0  0  0  0  0  0  0  0
   32.4188   38.2788   59.9752 H   0  0  0  0  0  0  0  0  0  0  0  0
   31.1658   35.2520   58.9033 H   0  0  0  0  0  0  0  0  0  0  0  0
   32.8175   34.8937   59.4618 H   0  0  0  0  0  0  0  0  0  0  0  0
   29.6702   36.8198   60.4513 H   0  0  0  0  0  0  0  0  0  0  0  0
   32.8912   35.4833   56.7891 H   0  0  0  0  0  0  0  0  0  0  0  0
   33.7680   37.2758   55.3464 H   0  0  0  0  0  0  0  0  0  0  0  0
  1  2  1  0  0  0  0
  1 17  1  0  0  0  0
  1 18  1  0  0  0  0
  1 19  1  0  0  0  0
  2 16  2  0  0  0  0
  2  3  1  0  0  0  0
  3  4  2  0  0  0  0
  3 20  1  0  0  0  0
  4  5  1  0  0  0  0
  4 21  1  0  0  0  0
  5  6  1  0  0  0  0
  5 15  2  0  0  0  0
  6  7  1  0  0  0  0
  6 22  1  0  0  0  0
  6 23  1  0  0  0  0
  7 14  1  0  0  0  0
  7  8  1  0  0  0  0
  8  9  2  0  0  0  0
  8 24  1  0  0  0  0
  9 10  1  0  0  0  0
 10 11  1  0  0  0  0
 10 14  2  0  0  0  0
 11 12  2  0  0  0  0
 11 13  2  0  0  0  0
 15 16  1  0  0  0  0
 15 25  1  0  0  0  0
 16 26  1  0  0  0  0
M  END
$$$$
