ZINC000000021005      none
 OpenBabel11202420153D

 30 30  0  0  0  0  0  0  0  0999 V2000
   30.5128   36.1436   63.1552 C   0  0  0  0  0  0  0  0  0  0  0  0
   31.3224   36.2245   61.8594 C   0  0  0  0  0  0  0  0  0  0  0  0
   31.9023   34.8468   61.5334 C   0  0  0  0  0  0  0  0  0  0  0  0
   32.4626   37.2300   62.0327 C   0  0  0  0  0  0  0  0  0  0  0  0
   33.0268   37.0900   63.3380 O   0  0  0  0  0  0  0  0  0  0  0  0
   30.4119   36.6781   60.7166 C   0  0  0  0  0  0  0  0  0  0  0  0
   31.0169   36.3091   59.4344 N   0  0  0  0  0  0  0  0  0  0  0  0
   31.8727   37.1901   58.7931 C   0  0  0  0  0  0  0  0  0  0  0  0
   32.4500   36.8512   57.5684 C   0  0  0  0  0  0  0  0  0  0  0  0
   33.2980   37.7615   56.9646 C   0  0  0  0  0  0  0  0  0  0  0  0
   34.0432   37.3904   55.4412 Cl  0  0  0  0  0  0  0  0  0  0  0  0
   33.5360   38.9211   57.5627 N   0  0  0  0  0  0  0  0  0  0  0  0
   32.9734   39.2151   58.7254 C   0  0  0  0  0  0  0  0  0  0  0  0
   33.2469   40.4358   59.3174 N   0  0  0  0  0  0  0  0  0  0  0  0
   32.1514   38.3726   59.3328 N   0  0  0  0  0  0  0  0  0  0  0  0
   29.7004   35.4274   63.0317 H   0  0  0  0  0  0  0  0  0  0  0  0
   31.1613   35.8206   63.9693 H   0  0  0  0  0  0  0  0  0  0  0  0
   30.0995   37.1251   63.3873 H   0  0  0  0  0  0  0  0  0  0  0  0
   32.4791   34.9045   60.6104 H   0  0  0  0  0  0  0  0  0  0  0  0
   32.5510   34.5237   62.3477 H   0  0  0  0  0  0  0  0  0  0  0  0
   31.0899   34.1306   61.4100 H   0  0  0  0  0  0  0  0  0  0  0  0
   33.2307   37.0410   61.2827 H   0  0  0  0  0  0  0  0  0  0  0  0
   32.0766   38.2419   61.9103 H   0  0  0  0  0  0  0  0  0  0  0  0
   32.3987   37.2446   64.0567 H   0  0  0  0  0  0  0  0  0  0  0  0
   29.4398   36.1941   60.8124 H   0  0  0  0  0  0  0  0  0  0  0  0
   30.2850   37.7599   60.7605 H   0  0  0  0  0  0  0  0  0  0  0  0
   30.8184   35.4481   59.0343 H   0  0  0  0  0  0  0  0  0  0  0  0
   32.2395   35.8996   57.1029 H   0  0  0  0  0  0  0  0  0  0  0  0
   33.8440   41.0635   58.8812 H   0  0  0  0  0  0  0  0  0  0  0  0
   32.8416   40.6635   60.1688 H   0  0  0  0  0  0  0  0  0  0  0  0
  1  2  1  0  0  0  0
  1 16  1  0  0  0  0
  1 17  1  0  0  0  0
  1 18  1  0  0  0  0
  2  3  1  0  0  0  0
  2  4  1  0  0  0  0
  2  6  1  0  0  0  0
  3 19  1  0  0  0  0
  3 20  1  0  0  0  0
  3 21  1  0  0  0  0
  4  5  1  0  0  0  0
  4 22  1  0  0  0  0
  4 23  1  0  0  0  0
  5 24  1  0  0  0  0
  6  7  1  0  0  0  0
  6 25  1  0  0  0  0
  6 26  1  0  0  0  0
  7  8  1  0  0  0  0
  7 27  1  0  0  0  0
  8 15  2  0  0  0  0
  8  9  1  0  0  0  0
  9 10  2  0  0  0  0
  9 28  1  0  0  0  0
 10 11  1  0  0  0  0
 10 12  1  0  0  0  0
 12 13  2  0  0  0  0
 13 14  1  0  0  0  0
 13 15  1  0  0  0  0
 14 29  1  0  0  0  0
 14 30  1  0  0  0  0
M  END
$$$$
