ZINC000000000675      none
 OpenBabel11202420153D

 31 32  0  0  1  0  0  0  0  0999 V2000
   32.3040   36.2288   53.7049 C   0  0  0  0  0  0  0  0  0  0  0  0
   32.6087   34.8617   54.3205 C   0  0  1  0  0  0  0  0  0  0  0  0
   31.7427   34.5163   54.8852 H   0  0  0  0  0  0  0  0  0  0  0  0
   32.9035   33.9264   53.2812 O   0  0  0  0  0  0  0  0  0  0  0  0
   33.8133   34.9808   55.2563 C   0  0  0  0  0  0  0  0  0  0  0  0
   33.3802   35.5340   56.5418 N   0  0  0  0  0  0  0  0  0  0  0  0
   32.9816   34.6991   57.5241 C   0  0  0  0  0  0  0  0  0  0  0  0
   32.9805   33.4942   57.3459 O   0  0  0  0  0  0  0  0  0  0  0  0
   32.5656   35.2385   58.7604 C   0  0  0  0  0  0  0  0  0  0  0  0
   32.5766   36.6166   58.9357 C   0  0  0  0  0  0  0  0  0  0  0  0
   32.1436   36.8614   60.1750 N   0  0  0  0  0  0  0  0  0  0  0  0
   31.8601   35.7342   60.7765 C   0  0  0  0  0  0  0  0  0  0  0  0
   32.1092   34.7017   59.9475 N   0  0  0  0  0  0  0  0  0  0  0  0
   31.9248   33.2795   60.2470 C   0  0  0  0  0  0  0  0  0  0  0  0
   32.9970   37.4206   57.8885 N   0  0  0  0  0  0  0  0  0  0  0  0
   33.0188   38.8767   58.0475 C   0  0  0  0  0  0  0  0  0  0  0  0
   33.3864   36.8655   56.7253 C   0  0  0  0  0  0  0  0  0  0  0  0
   33.7525   37.5871   55.8176 O   0  0  0  0  0  0  0  0  0  0  0  0
   33.1700   36.5742   53.1402 H   0  0  0  0  0  0  0  0  0  0  0  0
   31.4459   36.1440   53.0382 H   0  0  0  0  0  0  0  0  0  0  0  0
   32.0791   36.9423   54.4977 H   0  0  0  0  0  0  0  0  0  0  0  0
   32.1825   33.8005   52.6491 H   0  0  0  0  0  0  0  0  0  0  0  0
   34.5571   35.6402   54.8090 H   0  0  0  0  0  0  0  0  0  0  0  0
   34.2499   33.9945   55.4137 H   0  0  0  0  0  0  0  0  0  0  0  0
   31.4861   35.6450   61.7857 H   0  0  0  0  0  0  0  0  0  0  0  0
   32.8447   32.8748   60.6690 H   0  0  0  0  0  0  0  0  0  0  0  0
   31.6793   32.7440   59.3299 H   0  0  0  0  0  0  0  0  0  0  0  0
   31.1131   33.1617   60.9650 H   0  0  0  0  0  0  0  0  0  0  0  0
   33.3760   39.3375   57.1266 H   0  0  0  0  0  0  0  0  0  0  0  0
   32.0121   39.2335   58.2656 H   0  0  0  0  0  0  0  0  0  0  0  0
   33.6843   39.1426   58.8687 H   0  0  0  0  0  0  0  0  0  0  0  0
  1  2  1  0  0  0  0
  1 19  1  0  0  0  0
  1 20  1  0  0  0  0
  1 21  1  0  0  0  0
  2  3  1  1  0  0  0
  2  4  1  0  0  0  0
  2  5  1  0  0  0  0
  4 22  1  0  0  0  0
  5  6  1  0  0  0  0
  5 23  1  0  0  0  0
  5 24  1  0  0  0  0
  6 17  1  0  0  0  0
  6  7  1  0  0  0  0
  7  8  2  0  0  0  0
  7  9  1  0  0  0  0
  9 13  1  0  0  0  0
  9 10  2  0  0  0  0
 10 11  1  0  0  0  0
 10 15  1  0  0  0  0
 11 12  2  0  0  0  0
 12 13  1  0  0  0  0
 12 25  1  0  0  0  0
 13 14  1  0  0  0  0
 14 26  1  0  0  0  0
 14 27  1  0  0  0  0
 14 28  1  0  0  0  0
 15 16  1  0  0  0  0
 15 17  1  0  0  0  0
 16 29  1  0  0  0  0
 16 30  1  0  0  0  0
 16 31  1  0  0  0  0
 17 18  2  0  0  0  0
M  END
$$$$
