ZINC000000038981      none
 OpenBabel11202420153D

 37 39  0  0  0  0  0  0  0  0999 V2000
   33.2314   36.2048   62.6221 O   0  0  0  0  0  0  0  0  0  0  0  0
   32.2987   36.9405   62.8878 C   0  0  0  0  0  0  0  0  0  0  0  0
   31.6418   37.5794   61.8995 N   0  0  0  0  0  0  0  0  0  0  0  0
   32.0322   37.3969   60.5672 C   0  0  0  0  0  0  0  0  0  0  0  0
   32.4426   38.4850   59.8083 C   0  0  0  0  0  0  0  0  0  0  0  0
   32.8325   38.3034   58.4961 C   0  0  0  0  0  0  0  0  0  0  0  0
   32.8040   37.0361   57.9327 C   0  0  0  0  0  0  0  0  0  0  0  0
   33.1822   36.8590   56.6387 O   0  0  0  0  0  0  0  0  0  0  0  0
   33.5973   38.0218   55.9192 C   0  0  0  0  0  0  0  0  0  0  0  0
   33.9766   37.6338   54.5132 C   0  0  0  0  0  0  0  0  0  0  0  0
   34.9379   38.3569   53.8321 C   0  0  0  0  0  0  0  0  0  0  0  0
   35.2892   37.9980   52.5443 C   0  0  0  0  0  0  0  0  0  0  0  0
   34.6723   36.9226   51.9338 C   0  0  0  0  0  0  0  0  0  0  0  0
   33.7066   36.2028   52.6129 C   0  0  0  0  0  0  0  0  0  0  0  0
   33.3589   36.5584   53.9027 C   0  0  0  0  0  0  0  0  0  0  0  0
   32.3891   35.9495   58.6886 C   0  0  0  0  0  0  0  0  0  0  0  0
   32.0039   36.1286   60.0024 C   0  0  0  0  0  0  0  0  0  0  0  0
   31.8862   37.1265   64.2817 C   0  0  0  0  0  0  0  0  0  0  0  0
   31.4617   36.1358   65.1220 C   0  0  0  0  0  0  0  0  0  0  0  0
   31.1368   36.5905   66.3780 C   0  0  0  0  0  0  0  0  0  0  0  0
   31.2890   37.9071   66.5621 C   0  0  0  0  0  0  0  0  0  0  0  0
   31.8656   38.6592   65.1433 S   0  0  0  0  0  0  0  0  0  0  0  0
   30.8985   38.1656   62.1112 H   0  0  0  0  0  0  0  0  0  0  0  0
   32.4602   39.4725   60.2453 H   0  0  0  0  0  0  0  0  0  0  0  0
   33.1552   39.1491   57.9069 H   0  0  0  0  0  0  0  0  0  0  0  0
   32.7796   38.7419   55.8894 H   0  0  0  0  0  0  0  0  0  0  0  0
   34.4575   38.4693   56.4172 H   0  0  0  0  0  0  0  0  0  0  0  0
   35.4172   39.1998   54.3077 H   0  0  0  0  0  0  0  0  0  0  0  0
   36.0433   38.5604   52.0137 H   0  0  0  0  0  0  0  0  0  0  0  0
   34.9440   36.6444   50.9262 H   0  0  0  0  0  0  0  0  0  0  0  0
   33.2241   35.3625   52.1358 H   0  0  0  0  0  0  0  0  0  0  0  0
   32.6047   35.9962   54.4330 H   0  0  0  0  0  0  0  0  0  0  0  0
   32.3671   34.9631   58.2492 H   0  0  0  0  0  0  0  0  0  0  0  0
   31.6803   35.2826   60.5907 H   0  0  0  0  0  0  0  0  0  0  0  0
   31.3886   35.0991   64.8283 H   0  0  0  0  0  0  0  0  0  0  0  0
   30.7846   35.9330   67.1591 H   0  0  0  0  0  0  0  0  0  0  0  0
   31.0794   38.4240   67.4870 H   0  0  0  0  0  0  0  0  0  0  0  0
  1  2  2  0  0  0  0
  2  3  1  0  0  0  0
  2 18  1  0  0  0  0
  3  4  1  0  0  0  0
  3 23  1  0  0  0  0
  4 17  2  0  0  0  0
  4  5  1  0  0  0  0
  5  6  2  0  0  0  0
  5 24  1  0  0  0  0
  6  7  1  0  0  0  0
  6 25  1  0  0  0  0
  7  8  1  0  0  0  0
  7 16  2  0  0  0  0
  8  9  1  0  0  0  0
  9 10  1  0  0  0  0
  9 26  1  0  0  0  0
  9 27  1  0  0  0  0
 10 15  2  0  0  0  0
 10 11  1  0  0  0  0
 11 12  2  0  0  0  0
 11 28  1  0  0  0  0
 12 13  1  0  0  0  0
 12 29  1  0  0  0  0
 13 14  2  0  0  0  0
 13 30  1  0  0  0  0
 14 15  1  0  0  0  0
 14 31  1  0  0  0  0
 15 32  1  0  0  0  0
 16 17  1  0  0  0  0
 16 33  1  0  0  0  0
 17 34  1  0  0  0  0
 18 22  1  0  0  0  0
 18 19  2  0  0  0  0
 19 20  1  0  0  0  0
 19 35  1  0  0  0  0
 20 21  2  0  0  0  0
 20 36  1  0  0  0  0
 21 22  1  0  0  0  0
 21 37  1  0  0  0  0
M  END
$$$$
