ZINC000000040911      none
 OpenBabel11202420153D

 28 30  0  0  0  0  0  0  0  0999 V2000
   30.8975   34.5607   62.7531 O   0  0  0  0  0  0  0  0  0  0  0  0
   31.0966   35.5520   62.0761 C   0  0  0  0  0  0  0  0  0  0  0  0
   30.7799   36.8789   62.6095 C   0  0  0  0  0  0  0  0  0  0  0  0
   29.5769   37.5169   62.4862 C   0  0  0  0  0  0  0  0  0  0  0  0
   29.5547   38.7548   63.0830 C   0  0  0  0  0  0  0  0  0  0  0  0
   30.6980   39.1203   63.6751 C   0  0  0  0  0  0  0  0  0  0  0  0
   31.8834   37.9034   63.5173 S   0  0  0  0  0  0  0  0  0  0  0  0
   31.6087   35.4290   60.8355 N   0  0  0  0  0  0  0  0  0  0  0  0
   31.8528   36.6227   60.0078 C   0  0  0  0  0  0  0  0  0  0  0  0
   32.4282   36.3924   58.6294 C   0  0  0  0  0  0  0  0  0  0  0  0
   32.6916   37.4421   57.7799 C   0  0  0  0  0  0  0  0  0  0  0  0
   33.2185   37.1931   56.5239 C   0  0  0  0  0  0  0  0  0  0  0  0
   33.4781   35.8938   56.1271 C   0  0  0  0  0  0  0  0  0  0  0  0
   33.2150   34.8385   56.9782 C   0  0  0  0  0  0  0  0  0  0  0  0
   32.6860   35.0828   58.2389 C   0  0  0  0  0  0  0  0  0  0  0  0
   32.4130   34.0309   59.1128 N   0  0  0  0  0  0  0  0  0  0  0  0
   31.9028   34.2144   60.3373 C   0  0  0  0  0  0  0  0  0  0  0  0
   31.6120   32.8393   61.3147 S   0  0  0  0  0  0  0  0  0  0  0  0
   28.7288   37.0909   61.9709 H   0  0  0  0  0  0  0  0  0  0  0  0
   28.6785   39.3861   63.0751 H   0  0  0  0  0  0  0  0  0  0  0  0
   30.8487   40.0586   64.1881 H   0  0  0  0  0  0  0  0  0  0  0  0
   32.5349   37.2756   60.5522 H   0  0  0  0  0  0  0  0  0  0  0  0
   30.9065   37.1515   59.8931 H   0  0  0  0  0  0  0  0  0  0  0  0
   32.4886   38.4560   58.0916 H   0  0  0  0  0  0  0  0  0  0  0  0
   33.4228   38.0136   55.8520 H   0  0  0  0  0  0  0  0  0  0  0  0
   33.8890   35.7036   55.1465 H   0  0  0  0  0  0  0  0  0  0  0  0
   33.4188   33.8256   56.6637 H   0  0  0  0  0  0  0  0  0  0  0  0
   32.6003   33.1253   58.8202 H   0  0  0  0  0  0  0  0  0  0  0  0
  1  2  2  0  0  0  0
  2  3  1  0  0  0  0
  2  8  1  0  0  0  0
  3  7  1  0  0  0  0
  3  4  2  0  0  0  0
  4  5  1  0  0  0  0
  4 19  1  0  0  0  0
  5  6  2  0  0  0  0
  5 20  1  0  0  0  0
  6  7  1  0  0  0  0
  6 21  1  0  0  0  0
  8 17  1  0  0  0  0
  8  9  1  0  0  0  0
  9 10  1  0  0  0  0
  9 22  1  0  0  0  0
  9 23  1  0  0  0  0
 10 15  2  0  0  0  0
 10 11  1  0  0  0  0
 11 12  2  0  0  0  0
 11 24  1  0  0  0  0
 12 13  1  0  0  0  0
 12 25  1  0  0  0  0
 13 14  2  0  0  0  0
 13 26  1  0  0  0  0
 14 15  1  0  0  0  0
 14 27  1  0  0  0  0
 15 16  1  0  0  0  0
 16 17  1  0  0  0  0
 16 28  1  0  0  0  0
 17 18  2  0  0  0  0
M  END
$$$$
