ZINC000000050616      none
 OpenBabel11202420153D

 24 26  0  0  0  0  0  0  0  0999 V2000
   33.8741   35.4949   53.0295 O   0  0  0  0  0  0  0  0  0  0  0  0
   33.9891   35.1409   54.1897 C   0  0  0  0  0  0  0  0  0  0  0  0
   33.7122   36.0890   55.2786 C   0  0  0  0  0  0  0  0  0  0  0  0
   33.2516   35.7509   56.5120 C   0  0  0  0  0  0  0  0  0  0  0  0
   33.1249   37.0043   57.2543 C   0  0  0  0  0  0  0  0  0  0  0  0
   32.7019   37.3334   58.5446 C   0  0  0  0  0  0  0  0  0  0  0  0
   32.7018   38.6399   58.9444 C   0  0  0  0  0  0  0  0  0  0  0  0
   33.1185   39.6409   58.0773 C   0  0  0  0  0  0  0  0  0  0  0  0
   33.5395   39.3371   56.8006 C   0  0  0  0  0  0  0  0  0  0  0  0
   33.5439   38.0157   56.3695 C   0  0  0  0  0  0  0  0  0  0  0  0
   33.8862   37.4250   55.2079 O   0  0  0  0  0  0  0  0  0  0  0  0
   34.4035   33.7698   54.4997 C   0  0  0  0  0  0  0  0  0  0  0  0
   34.1517   32.6700   53.7253 C   0  0  0  0  0  0  0  0  0  0  0  0
   34.6553   31.5065   54.2548 C   0  0  0  0  0  0  0  0  0  0  0  0
   35.2976   31.6443   55.4217 C   0  0  0  0  0  0  0  0  0  0  0  0
   35.3103   33.2751   55.9227 S   0  0  0  0  0  0  0  0  0  0  0  0
   33.0173   34.7587   56.8683 H   0  0  0  0  0  0  0  0  0  0  0  0
   32.3767   36.5586   59.2229 H   0  0  0  0  0  0  0  0  0  0  0  0
   32.3750   38.8957   59.9415 H   0  0  0  0  0  0  0  0  0  0  0  0
   33.1124   40.6694   58.4069 H   0  0  0  0  0  0  0  0  0  0  0  0
   33.8610   40.1246   56.1351 H   0  0  0  0  0  0  0  0  0  0  0  0
   33.6108   32.7123   52.7915 H   0  0  0  0  0  0  0  0  0  0  0  0
   34.5418   30.5504   53.7654 H   0  0  0  0  0  0  0  0  0  0  0  0
   35.7516   30.8321   55.9700 H   0  0  0  0  0  0  0  0  0  0  0  0
  1  2  2  0  0  0  0
  2  3  1  0  0  0  0
  2 12  1  0  0  0  0
  3 11  1  0  0  0  0
  3  4  2  0  0  0  0
  4  5  1  0  0  0  0
  4 17  1  0  0  0  0
  5 10  2  0  0  0  0
  5  6  1  0  0  0  0
  6  7  2  0  0  0  0
  6 18  1  0  0  0  0
  7  8  1  0  0  0  0
  7 19  1  0  0  0  0
  8  9  2  0  0  0  0
  8 20  1  0  0  0  0
  9 10  1  0  0  0  0
  9 21  1  0  0  0  0
 10 11  1  0  0  0  0
 12 16  1  0  0  0  0
 12 13  2  0  0  0  0
 13 14  1  0  0  0  0
 13 22  1  0  0  0  0
 14 15  2  0  0  0  0
 14 23  1  0  0  0  0
 15 16  1  0  0  0  0
 15 24  1  0  0  0  0
M  END
$$$$
