ZINC000000023808      none
 OpenBabel11202420153D

 37 40  0  0  1  0  0  0  0  0999 V2000
   33.0142   36.2492   57.0839 N   0  0  0  0  0  0  0  0  0  0  0  0
   32.8338   37.0664   58.1811 C   0  0  0  0  0  0  0  0  0  0  0  0
   33.2159   38.3380   58.1333 N   0  0  0  0  0  0  0  0  0  0  0  0
   33.0401   39.1209   59.1921 C   0  0  0  0  0  0  0  0  0  0  0  0
   33.4349   40.4424   59.1473 N   0  0  0  0  0  0  0  0  0  0  0  0
   32.4822   38.6292   60.2961 N   0  0  0  0  0  0  0  0  0  0  0  0
   32.1033   37.3639   60.3397 C   0  0  0  0  0  0  0  0  0  0  0  0
   31.4725   36.8111   61.5918 C   0  0  2  0  0  0  0  0  0  0  0  0
   31.1293   35.3350   61.3810 C   0  0  0  0  0  0  0  0  0  0  0  0
   30.4889   34.7738   62.6522 C   0  0  1  0  0  0  0  0  0  0  0  0
   31.4693   34.9079   63.8191 C   0  0  0  0  0  0  0  0  0  0  0  0
   31.8125   36.3839   64.0299 C   0  0  2  0  0  0  0  0  0  0  0  0
   30.5350   37.1647   64.3448 C   0  0  0  0  0  0  0  0  0  0  0  0
   29.5546   37.0306   63.1778 C   0  0  2  0  0  0  0  0  0  0  0  0
   29.2114   35.5546   62.9671 C   0  0  0  0  0  0  0  0  0  0  0  0
   30.1949   37.5919   61.9067 C   0  0  0  0  0  0  0  0  0  0  0  0
   32.4529   36.9451   62.7587 C   0  0  0  0  0  0  0  0  0  0  0  0
   32.2811   36.5807   59.2903 N   0  0  0  0  0  0  0  0  0  0  0  0
   33.4202   36.6030   56.2771 H   0  0  0  0  0  0  0  0  0  0  0  0
   32.7349   35.3209   57.1195 H   0  0  0  0  0  0  0  0  0  0  0  0
   33.3059   41.0137   59.9205 H   0  0  0  0  0  0  0  0  0  0  0  0
   33.8415   40.8002   58.3425 H   0  0  0  0  0  0  0  0  0  0  0  0
   32.0394   34.7789   61.1566 H   0  0  0  0  0  0  0  0  0  0  0  0
   30.4309   35.2396   60.5496 H   0  0  0  0  0  0  0  0  0  0  0  0
   30.2444   33.7223   62.5020 H   0  0  0  0  0  0  0  0  0  0  0  0
   31.0131   34.5080   64.7246 H   0  0  0  0  0  0  0  0  0  0  0  0
   32.3795   34.3517   63.5948 H   0  0  0  0  0  0  0  0  0  0  0  0
   32.5109   36.4795   64.8612 H   0  0  0  0  0  0  0  0  0  0  0  0
   30.7795   38.2163   64.4949 H   0  0  0  0  0  0  0  0  0  0  0  0
   30.0787   36.7648   65.2504 H   0  0  0  0  0  0  0  0  0  0  0  0
   28.6444   37.5867   63.4022 H   0  0  0  0  0  0  0  0  0  0  0  0
   28.5128   35.4590   62.1358 H   0  0  0  0  0  0  0  0  0  0  0  0
   28.7552   35.1548   63.8727 H   0  0  0  0  0  0  0  0  0  0  0  0
   29.4965   37.4963   61.0754 H   0  0  0  0  0  0  0  0  0  0  0  0
   30.4394   38.6433   62.0568 H   0  0  0  0  0  0  0  0  0  0  0  0
   32.6974   37.9967   62.9088 H   0  0  0  0  0  0  0  0  0  0  0  0
   33.3630   36.3889   62.5343 H   0  0  0  0  0  0  0  0  0  0  0  0
  1  2  1  0  0  0  0
  1 19  1  0  0  0  0
  1 20  1  0  0  0  0
  2 18  2  0  0  0  0
  2  3  1  0  0  0  0
  3  4  2  0  0  0  0
  4  5  1  0  0  0  0
  4  6  1  0  0  0  0
  5 21  1  0  0  0  0
  5 22  1  0  0  0  0
  6  7  2  0  0  0  0
  7 18  1  0  0  0  0
  8  7  1  6  0  0  0
  8 16  1  0  0  0  0
  8 17  1  0  0  0  0
  8  9  1  0  0  0  0
  9 10  1  0  0  0  0
  9 23  1  0  0  0  0
  9 24  1  0  0  0  0
 10 15  1  0  0  0  0
 10 11  1  0  0  0  0
 10 25  1  6  0  0  0
 11 12  1  0  0  0  0
 11 26  1  0  0  0  0
 11 27  1  0  0  0  0
 12 13  1  0  0  0  0
 12 17  1  0  0  0  0
 12 28  1  1  0  0  0
 13 14  1  0  0  0  0
 13 29  1  0  0  0  0
 13 30  1  0  0  0  0
 14 15  1  0  0  0  0
 14 16  1  0  0  0  0
 14 31  1  1  0  0  0
 15 32  1  0  0  0  0
 15 33  1  0  0  0  0
 16 34  1  0  0  0  0
 16 35  1  0  0  0  0
 17 36  1  0  0  0  0
 17 37  1  0  0  0  0
M  END
$$$$
