ZINC000000030516      none
 OpenBabel11202420163D

 30 31  0  0  0  0  0  0  0  0999 V2000
   32.6877   38.8398   56.5032 C   0  0  0  0  0  0  0  0  0  0  0  0
   33.6644   38.0142   57.1408 O   0  0  0  0  0  0  0  0  0  0  0  0
   33.4760   36.6724   57.0723 C   0  0  0  0  0  0  0  0  0  0  0  0
   34.0157   35.9470   56.0252 C   0  0  0  0  0  0  0  0  0  0  0  0
   33.8189   34.5723   55.9611 C   0  0  0  0  0  0  0  0  0  0  0  0
   34.5067   33.6483   54.6278 S   0  0  0  0  0  0  0  0  0  0  0  0
   34.8108   32.0223   55.3723 C   0  0  0  0  0  0  0  0  0  0  0  0
   33.0792   33.9221   56.9486 C   0  0  0  0  0  0  0  0  0  0  0  0
   32.5427   34.6282   57.9853 C   0  0  0  0  0  0  0  0  0  0  0  0
   32.7370   36.0118   58.0671 C   0  0  0  0  0  0  0  0  0  0  0  0
   32.1640   36.7726   59.1887 C   0  0  0  0  0  0  0  0  0  0  0  0
   32.7175   37.7805   59.5858 O   0  0  0  0  0  0  0  0  0  0  0  0
   31.0260   36.3528   59.7762 N   0  0  0  0  0  0  0  0  0  0  0  0
   30.4852   37.0709   60.8350 C   0  0  0  0  0  0  0  0  0  0  0  0
   30.9932   38.1543   61.3340 N   0  0  0  0  0  0  0  0  0  0  0  0
   30.3438   38.7107   62.3396 C   0  0  0  0  0  0  0  0  0  0  0  0
   29.2400   38.0614   62.7142 C   0  0  0  0  0  0  0  0  0  0  0  0
   29.0566   36.6507   61.6751 S   0  0  0  0  0  0  0  0  0  0  0  0
   32.6502   38.6031   55.4398 H   0  0  0  0  0  0  0  0  0  0  0  0
   31.7105   38.6580   56.9504 H   0  0  0  0  0  0  0  0  0  0  0  0
   32.9574   39.8878   56.6329 H   0  0  0  0  0  0  0  0  0  0  0  0
   34.5885   36.4478   55.2590 H   0  0  0  0  0  0  0  0  0  0  0  0
   35.5019   32.1290   56.2085 H   0  0  0  0  0  0  0  0  0  0  0  0
   33.8696   31.6046   55.7298 H   0  0  0  0  0  0  0  0  0  0  0  0
   35.2437   31.3561   54.6259 H   0  0  0  0  0  0  0  0  0  0  0  0
   32.9307   32.8537   56.8925 H   0  0  0  0  0  0  0  0  0  0  0  0
   31.9714   34.1180   58.7466 H   0  0  0  0  0  0  0  0  0  0  0  0
   30.5846   35.5491   59.4596 H   0  0  0  0  0  0  0  0  0  0  0  0
   30.6810   39.6158   62.8227 H   0  0  0  0  0  0  0  0  0  0  0  0
   28.5752   38.3502   63.5149 H   0  0  0  0  0  0  0  0  0  0  0  0
  1  2  1  0  0  0  0
  1 19  1  0  0  0  0
  1 20  1  0  0  0  0
  1 21  1  0  0  0  0
  2  3  1  0  0  0  0
  3 10  2  0  0  0  0
  3  4  1  0  0  0  0
  4  5  2  0  0  0  0
  4 22  1  0  0  0  0
  5  6  1  0  0  0  0
  5  8  1  0  0  0  0
  6  7  1  0  0  0  0
  7 23  1  0  0  0  0
  7 24  1  0  0  0  0
  7 25  1  0  0  0  0
  8  9  2  0  0  0  0
  8 26  1  0  0  0  0
  9 10  1  0  0  0  0
  9 27  1  0  0  0  0
 10 11  1  0  0  0  0
 11 12  2  0  0  0  0
 11 13  1  0  0  0  0
 13 14  1  0  0  0  0
 13 28  1  0  0  0  0
 14 18  1  0  0  0  0
 14 15  2  0  0  0  0
 15 16  1  0  0  0  0
 16 17  2  0  0  0  0
 16 29  1  0  0  0  0
 17 18  1  0  0  0  0
 17 30  1  0  0  0  0
M  END
$$$$
