ZINC000000031171      none
 OpenBabel11202420163D

 29 30  0  0  0  0  0  0  0  0999 V2000
   35.0675   41.9056   52.9672 C   0  0  0  0  0  0  0  0  0  0  0  0
   34.7057   41.0420   54.0467 O   0  0  0  0  0  0  0  0  0  0  0  0
   34.7719   39.7045   53.8155 C   0  0  0  0  0  0  0  0  0  0  0  0
   35.1775   39.2335   52.5743 C   0  0  0  0  0  0  0  0  0  0  0  0
   35.2452   37.8738   52.3378 C   0  0  0  0  0  0  0  0  0  0  0  0
   34.9156   36.9787   53.3373 C   0  0  0  0  0  0  0  0  0  0  0  0
   34.5040   37.4443   54.5796 C   0  0  0  0  0  0  0  0  0  0  0  0
   34.1653   36.5386   55.5896 N   0  0  0  0  0  0  0  0  0  0  0  0
   33.2438   36.8739   56.5143 C   0  0  0  0  0  0  0  0  0  0  0  0
   32.7067   37.9645   56.4700 O   0  0  0  0  0  0  0  0  0  0  0  0
   32.8874   35.9210   57.5771 C   0  0  0  0  0  0  0  0  0  0  0  0
   31.9674   36.1152   58.5930 C   0  0  0  0  0  0  0  0  0  0  0  0
   31.9861   34.9350   59.3395 C   0  0  0  0  0  0  0  0  0  0  0  0
   31.1685   34.6501   60.5400 N   0  0  0  0  0  0  0  0  0  0  0  0
   30.3902   35.4878   60.9596 O   0  0  0  0  0  0  0  0  0  0  0  0
   31.2740   33.5780   61.1083 O   0  0  0  0  0  0  0  0  0  0  0  0
   32.8543   34.1253   58.7888 N   0  0  0  0  0  0  0  0  0  0  0  0
   33.3986   34.6673   57.7594 N   0  0  0  0  0  0  0  0  0  0  0  0
   34.0703   34.2503   57.1974 H   0  0  0  0  0  0  0  0  0  0  0  0
   34.4349   38.8100   54.8189 C   0  0  0  0  0  0  0  0  0  0  0  0
   34.9708   42.9439   53.2844 H   0  0  0  0  0  0  0  0  0  0  0  0
   36.0992   41.7095   52.6751 H   0  0  0  0  0  0  0  0  0  0  0  0
   34.4085   41.7221   52.1185 H   0  0  0  0  0  0  0  0  0  0  0  0
   35.4400   39.9306   51.7924 H   0  0  0  0  0  0  0  0  0  0  0  0
   35.5609   37.5100   51.3711 H   0  0  0  0  0  0  0  0  0  0  0  0
   34.9737   35.9165   53.1512 H   0  0  0  0  0  0  0  0  0  0  0  0
   34.5935   35.6689   55.6249 H   0  0  0  0  0  0  0  0  0  0  0  0
   31.3634   36.9927   58.7704 H   0  0  0  0  0  0  0  0  0  0  0  0
   34.1188   39.1747   55.7850 H   0  0  0  0  0  0  0  0  0  0  0  0
  1  2  1  0  0  0  0
  1 21  1  0  0  0  0
  1 22  1  0  0  0  0
  1 23  1  0  0  0  0
  2  3  1  0  0  0  0
  3 20  2  0  0  0  0
  3  4  1  0  0  0  0
  4  5  2  0  0  0  0
  4 24  1  0  0  0  0
  5  6  1  0  0  0  0
  5 25  1  0  0  0  0
  6  7  2  0  0  0  0
  6 26  1  0  0  0  0
  7  8  1  0  0  0  0
  7 20  1  0  0  0  0
  8  9  1  0  0  0  0
  8 27  1  0  0  0  0
  9 10  2  0  0  0  0
  9 11  1  0  0  0  0
 11 18  1  0  0  0  0
 11 12  2  0  0  0  0
 12 13  1  0  0  0  0
 12 28  1  0  0  0  0
 13 14  1  0  0  0  0
 13 17  2  0  0  0  0
 14 15  2  0  0  0  0
 14 16  2  0  0  0  0
 17 18  1  0  0  0  0
 18 19  1  0  0  0  0
 20 29  1  0  0  0  0
M  END
$$$$
