ZINC000000000078      none
 OpenBabel11202420153D

 32 33  0  0  1  0  0  0  0  0999 V2000
   34.6392   36.5053   53.6060 O   0  0  0  0  0  0  0  0  0  0  0  0
   33.5434   36.2556   54.0497 C   0  0  0  0  0  0  0  0  0  0  0  0
   32.8737   37.1864   54.7475 O   0  0  0  0  0  0  0  0  0  0  0  0
   33.6659   38.1443   55.4979 C   0  0  0  0  0  0  0  0  0  0  0  0
   33.3233   38.0421   56.9620 C   0  0  0  0  0  0  0  0  0  0  0  0
   33.4257   39.1552   57.7751 C   0  0  0  0  0  0  0  0  0  0  0  0
   33.1067   39.0626   59.1170 C   0  0  0  0  0  0  0  0  0  0  0  0
   32.6950   37.8544   59.6478 C   0  0  0  0  0  0  0  0  0  0  0  0
   32.5980   36.7399   58.8357 C   0  0  0  0  0  0  0  0  0  0  0  0
   32.9121   36.8338   57.4928 C   0  0  0  0  0  0  0  0  0  0  0  0
   32.9287   34.8991   53.8199 C   0  0  1  0  0  0  0  0  0  0  0  0
   31.9464   34.8608   54.2908 H   0  0  0  0  0  0  0  0  0  0  0  0
   32.7932   34.6690   52.4160 O   0  0  0  0  0  0  0  0  0  0  0  0
   33.8148   33.8377   54.4195 C   0  0  0  0  0  0  0  0  0  0  0  0
   33.8485   32.5715   53.8659 C   0  0  0  0  0  0  0  0  0  0  0  0
   34.6643   31.5992   54.4135 C   0  0  0  0  0  0  0  0  0  0  0  0
   35.4405   31.8907   55.5194 C   0  0  0  0  0  0  0  0  0  0  0  0
   35.4028   33.1555   56.0765 C   0  0  0  0  0  0  0  0  0  0  0  0
   34.5898   34.1289   55.5266 C   0  0  0  0  0  0  0  0  0  0  0  0
   34.7252   37.9297   55.3568 H   0  0  0  0  0  0  0  0  0  0  0  0
   33.4490   39.1520   55.1436 H   0  0  0  0  0  0  0  0  0  0  0  0
   33.7512   40.0982   57.3614 H   0  0  0  0  0  0  0  0  0  0  0  0
   33.1829   39.9332   59.7515 H   0  0  0  0  0  0  0  0  0  0  0  0
   32.4495   37.7811   60.6969 H   0  0  0  0  0  0  0  0  0  0  0  0
   32.2768   35.7959   59.2505 H   0  0  0  0  0  0  0  0  0  0  0  0
   32.8362   35.9630   56.8584 H   0  0  0  0  0  0  0  0  0  0  0  0
   32.2345   35.3158   51.9636 H   0  0  0  0  0  0  0  0  0  0  0  0
   33.2396   32.3428   53.0037 H   0  0  0  0  0  0  0  0  0  0  0  0
   34.6934   30.6110   53.9788 H   0  0  0  0  0  0  0  0  0  0  0  0
   36.0758   31.1304   55.9492 H   0  0  0  0  0  0  0  0  0  0  0  0
   36.0088   33.3832   56.9409 H   0  0  0  0  0  0  0  0  0  0  0  0
   34.5606   35.1170   55.9615 H   0  0  0  0  0  0  0  0  0  0  0  0
  1  2  2  0  0  0  0
  2  3  1  0  0  0  0
  2 11  1  0  0  0  0
  3  4  1  0  0  0  0
  4  5  1  0  0  0  0
  4 20  1  0  0  0  0
  4 21  1  0  0  0  0
  5 10  2  0  0  0  0
  5  6  1  0  0  0  0
  6  7  2  0  0  0  0
  6 22  1  0  0  0  0
  7  8  1  0  0  0  0
  7 23  1  0  0  0  0
  8  9  2  0  0  0  0
  8 24  1  0  0  0  0
  9 10  1  0  0  0  0
  9 25  1  0  0  0  0
 10 26  1  0  0  0  0
 11 12  1  1  0  0  0
 11 13  1  0  0  0  0
 11 14  1  0  0  0  0
 13 27  1  0  0  0  0
 14 19  2  0  0  0  0
 14 15  1  0  0  0  0
 15 16  2  0  0  0  0
 15 28  1  0  0  0  0
 16 17  1  0  0  0  0
 16 29  1  0  0  0  0
 17 18  2  0  0  0  0
 17 30  1  0  0  0  0
 18 19  1  0  0  0  0
 18 31  1  0  0  0  0
 19 32  1  0  0  0  0
M  END
$$$$
