ZINC000000047828      none
 OpenBabel11202420153D

 27 29  0  0  0  0  0  0  0  0999 V2000
   33.6115   37.2379   56.3334 O   0  0  0  0  0  0  0  0  0  0  0  0
   33.2843   36.2600   56.9812 C   0  0  0  0  0  0  0  0  0  0  0  0
   32.9379   36.2200   58.2858 O   0  0  0  0  0  0  0  0  0  0  0  0
   32.6466   34.9466   58.6149 C   0  0  0  0  0  0  0  0  0  0  0  0
   32.2248   34.5113   59.9615 C   0  0  0  0  0  0  0  0  0  0  0  0
   32.9807   33.5696   60.6633 C   0  0  0  0  0  0  0  0  0  0  0  0
   32.5836   33.1714   61.9227 C   0  0  0  0  0  0  0  0  0  0  0  0
   31.4330   33.6949   62.4867 C   0  0  0  0  0  0  0  0  0  0  0  0
   30.6768   34.6240   61.7950 C   0  0  0  0  0  0  0  0  0  0  0  0
   31.0650   35.0351   60.5368 C   0  0  0  0  0  0  0  0  0  0  0  0
   32.7788   34.1477   57.5924 N   0  0  0  0  0  0  0  0  0  0  0  0
   33.1831   34.8719   56.5103 C   0  0  0  0  0  0  0  0  0  0  0  0
   33.4392   34.3986   55.2317 C   0  0  0  0  0  0  0  0  0  0  0  0
   33.6741   35.3038   54.1802 C   0  0  0  0  0  0  0  0  0  0  0  0
   32.9231   35.4071   53.0326 C   0  0  0  0  0  0  0  0  0  0  0  0
   33.3779   36.3771   52.1753 C   0  0  0  0  0  0  0  0  0  0  0  0
   34.4626   37.0444   52.5934 C   0  0  0  0  0  0  0  0  0  0  0  0
   34.9746   36.4856   54.1219 S   0  0  0  0  0  0  0  0  0  0  0  0
   33.8762   33.1572   60.2224 H   0  0  0  0  0  0  0  0  0  0  0  0
   33.1692   32.4460   62.4680 H   0  0  0  0  0  0  0  0  0  0  0  0
   31.1244   33.3756   63.4712 H   0  0  0  0  0  0  0  0  0  0  0  0
   29.7801   35.0282   62.2411 H   0  0  0  0  0  0  0  0  0  0  0  0
   30.4735   35.7605   59.9980 H   0  0  0  0  0  0  0  0  0  0  0  0
   33.4583   33.3353   55.0433 H   0  0  0  0  0  0  0  0  0  0  0  0
   32.0628   34.7873   52.8269 H   0  0  0  0  0  0  0  0  0  0  0  0
   32.8993   36.5848   51.2297 H   0  0  0  0  0  0  0  0  0  0  0  0
   34.9470   37.8332   52.0374 H   0  0  0  0  0  0  0  0  0  0  0  0
  1  2  2  0  0  0  0
  2 12  1  0  0  0  0
  2  3  1  0  0  0  0
  3  4  1  0  0  0  0
  4  5  1  0  0  0  0
  4 11  2  0  0  0  0
  5 10  2  0  0  0  0
  5  6  1  0  0  0  0
  6  7  2  0  0  0  0
  6 19  1  0  0  0  0
  7  8  1  0  0  0  0
  7 20  1  0  0  0  0
  8  9  2  0  0  0  0
  8 21  1  0  0  0  0
  9 10  1  0  0  0  0
  9 22  1  0  0  0  0
 10 23  1  0  0  0  0
 11 12  1  0  0  0  0
 12 13  2  0  0  0  0
 13 14  1  0  0  0  0
 13 24  1  0  0  0  0
 14 18  1  0  0  0  0
 14 15  2  0  0  0  0
 15 16  1  0  0  0  0
 15 25  1  0  0  0  0
 16 17  2  0  0  0  0
 16 26  1  0  0  0  0
 17 18  1  0  0  0  0
 17 27  1  0  0  0  0
M  END
$$$$
