ZINC000000047304      none
 OpenBabel11202420153D

 41 44  0  0  0  0  0  0  0  0999 V2000
   29.5097   35.7279   64.6999 O   0  0  0  0  0  0  0  0  0  0  0  0
   30.5369   36.3022   64.3942 C   0  0  0  0  0  0  0  0  0  0  0  0
   31.0274   36.2469   63.0029 C   0  0  0  0  0  0  0  0  0  0  0  0
   31.8993   35.2289   62.6077 C   0  0  0  0  0  0  0  0  0  0  0  0
   32.3513   35.1779   61.3081 C   0  0  0  0  0  0  0  0  0  0  0  0
   31.9488   36.1435   60.3916 C   0  0  0  0  0  0  0  0  0  0  0  0
   32.4134   36.0914   59.0751 N   0  0  0  0  0  0  0  0  0  0  0  0
   32.5907   37.1675   58.2875 C   0  0  0  0  0  0  0  0  0  0  0  0
   32.3758   38.3203   58.6032 O   0  0  0  0  0  0  0  0  0  0  0  0
   33.0946   36.7122   56.9747 C   0  0  0  0  0  0  0  0  0  0  0  0
   33.4503   37.3538   55.7991 C   0  0  0  0  0  0  0  0  0  0  0  0
   33.8917   36.6092   54.7164 C   0  0  0  0  0  0  0  0  0  0  0  0
   33.9793   35.2324   54.8018 C   0  0  0  0  0  0  0  0  0  0  0  0
   33.6268   34.5768   55.9712 C   0  0  0  0  0  0  0  0  0  0  0  0
   33.1838   35.3080   57.0618 C   0  0  0  0  0  0  0  0  0  0  0  0
   32.7367   34.9583   58.4264 C   0  0  0  0  0  0  0  0  0  0  0  0
   32.6727   33.8357   58.8853 O   0  0  0  0  0  0  0  0  0  0  0  0
   31.0853   37.1612   60.7829 C   0  0  0  0  0  0  0  0  0  0  0  0
   30.6254   37.2157   62.0796 C   0  0  0  0  0  0  0  0  0  0  0  0
   31.2277   36.9893   65.3253 N   0  0  0  0  0  0  0  0  0  0  0  0
   32.4738   37.6910   64.9782 C   0  0  0  0  0  0  0  0  0  0  0  0
   33.5549   37.2832   65.9856 C   0  0  0  0  0  0  0  0  0  0  0  0
   33.0618   37.4818   67.3127 O   0  0  0  0  0  0  0  0  0  0  0  0
   31.9236   36.6810   67.6402 C   0  0  0  0  0  0  0  0  0  0  0  0
   30.7585   37.0588   66.7183 C   0  0  0  0  0  0  0  0  0  0  0  0
   32.2151   34.4808   63.3197 H   0  0  0  0  0  0  0  0  0  0  0  0
   33.0222   34.3892   61.0010 H   0  0  0  0  0  0  0  0  0  0  0  0
   33.3843   38.4293   55.7268 H   0  0  0  0  0  0  0  0  0  0  0  0
   34.1696   37.1084   53.8000 H   0  0  0  0  0  0  0  0  0  0  0  0
   34.3250   34.6634   53.9516 H   0  0  0  0  0  0  0  0  0  0  0  0
   33.6970   33.5008   56.0319 H   0  0  0  0  0  0  0  0  0  0  0  0
   30.7753   37.9099   60.0688 H   0  0  0  0  0  0  0  0  0  0  0  0
   29.9546   38.0060   62.3826 H   0  0  0  0  0  0  0  0  0  0  0  0
   32.3137   38.7680   65.0274 H   0  0  0  0  0  0  0  0  0  0  0  0
   32.7855   37.4114   63.9719 H   0  0  0  0  0  0  0  0  0  0  0  0
   34.4443   37.8942   65.8325 H   0  0  0  0  0  0  0  0  0  0  0  0
   33.8064   36.2322   65.8441 H   0  0  0  0  0  0  0  0  0  0  0  0
   32.1684   35.6276   67.5045 H   0  0  0  0  0  0  0  0  0  0  0  0
   31.6402   36.8582   68.6777 H   0  0  0  0  0  0  0  0  0  0  0  0
   29.9342   36.3608   66.8634 H   0  0  0  0  0  0  0  0  0  0  0  0
   30.4256   38.0720   66.9439 H   0  0  0  0  0  0  0  0  0  0  0  0
  1  2  2  0  0  0  0
  2  3  1  0  0  0  0
  2 20  1  0  0  0  0
  3 19  2  0  0  0  0
  3  4  1  0  0  0  0
  4  5  2  0  0  0  0
  4 26  1  0  0  0  0
  5  6  1  0  0  0  0
  5 27  1  0  0  0  0
  6  7  1  0  0  0  0
  6 18  2  0  0  0  0
  7 16  1  0  0  0  0
  7  8  1  0  0  0  0
  8  9  2  0  0  0  0
  8 10  1  0  0  0  0
 10 15  2  0  0  0  0
 10 11  1  0  0  0  0
 11 12  2  0  0  0  0
 11 28  1  0  0  0  0
 12 13  1  0  0  0  0
 12 29  1  0  0  0  0
 13 14  2  0  0  0  0
 13 30  1  0  0  0  0
 14 15  1  0  0  0  0
 14 31  1  0  0  0  0
 15 16  1  0  0  0  0
 16 17  2  0  0  0  0
 18 19  1  0  0  0  0
 18 32  1  0  0  0  0
 19 33  1  0  0  0  0
 20 25  1  0  0  0  0
 20 21  1  0  0  0  0
 21 22  1  0  0  0  0
 21 34  1  0  0  0  0
 21 35  1  0  0  0  0
 22 23  1  0  0  0  0
 22 36  1  0  0  0  0
 22 37  1  0  0  0  0
 23 24  1  0  0  0  0
 24 25  1  0  0  0  0
 24 38  1  0  0  0  0
 24 39  1  0  0  0  0
 25 40  1  0  0  0  0
 25 41  1  0  0  0  0
M  END
$$$$
