ZINC000000005512      none
 OpenBabel11202420153D

 27 28  0  0  1  0  0  0  0  0999 V2000
   31.5394   37.1422   67.6582 N   0  3  0  0  0  0  0  0  0  0  0  0
   32.1650   37.7433   68.1732 H   0  0  0  0  0  0  0  0  0  0  0  0
   32.0588   36.6427   66.9517 H   0  0  0  0  0  0  0  0  0  0  0  0
   31.1108   36.4825   68.2898 H   0  0  0  0  0  0  0  0  0  0  0  0
   30.4970   37.9545   67.0168 C   0  0  1  0  0  0  0  0  0  0  0  0
   30.9628   38.7073   66.3808 H   0  0  0  0  0  0  0  0  0  0  0  0
   29.5992   37.0535   66.1665 C   0  0  0  0  0  0  0  0  0  0  0  0
   30.4284   36.3734   65.1077 C   0  0  0  0  0  0  0  0  0  0  0  0
   31.0591   35.1942   65.2226 C   0  0  0  0  0  0  0  0  0  0  0  0
   31.7097   34.8977   64.0552 N   0  0  0  0  0  0  0  0  0  0  0  0
   32.2333   34.0966   63.8971 H   0  0  0  0  0  0  0  0  0  0  0  0
   31.5150   35.9087   63.1412 C   0  0  0  0  0  0  0  0  0  0  0  0
   31.9452   36.1135   61.8338 C   0  0  0  0  0  0  0  0  0  0  0  0
   31.5737   37.2585   61.1620 C   0  0  0  0  0  0  0  0  0  0  0  0
   32.1117   37.5107   59.5308 Cl  0  0  0  0  0  0  0  0  0  0  0  0
   30.7726   38.2123   61.7772 C   0  0  0  0  0  0  0  0  0  0  0  0
   30.3391   38.0307   63.0610 C   0  0  0  0  0  0  0  0  0  0  0  0
   29.3389   39.2292   63.8205 Cl  0  0  0  0  0  0  0  0  0  0  0  0
   30.7043   36.8771   63.7599 C   0  0  0  0  0  0  0  0  0  0  0  0
   29.6678   38.6346   68.0755 C   0  0  0  0  0  0  0  0  0  0  0  0
   28.4941   38.8865   67.8621 O   0  0  0  0  0  0  0  0  0  0  0  0
   30.1706   38.9330   69.1453 O   0  0  0  0  0  1  0  0  0  0  0  0
   29.1334   36.3006   66.8023 H   0  0  0  0  0  0  0  0  0  0  0  0
   28.8257   37.6562   65.6908 H   0  0  0  0  0  0  0  0  0  0  0  0
   31.0523   34.5707   66.1044 H   0  0  0  0  0  0  0  0  0  0  0  0
   32.5685   35.3780   61.3471 H   0  0  0  0  0  0  0  0  0  0  0  0
   30.4900   39.1038   61.2372 H   0  0  0  0  0  0  0  0  0  0  0  0
  1  2  1  0  0  0  0
  1  3  1  0  0  0  0
  1  4  1  0  0  0  0
  1  5  1  0  0  0  0
  5  6  1  6  0  0  0
  5  7  1  0  0  0  0
  5 20  1  0  0  0  0
  7  8  1  0  0  0  0
  7 23  1  0  0  0  0
  7 24  1  0  0  0  0
  8 19  1  0  0  0  0
  8  9  2  0  0  0  0
  9 10  1  0  0  0  0
  9 25  1  0  0  0  0
 10 11  1  0  0  0  0
 10 12  1  0  0  0  0
 12 19  2  0  0  0  0
 12 13  1  0  0  0  0
 13 14  2  0  0  0  0
 13 26  1  0  0  0  0
 14 15  1  0  0  0  0
 14 16  1  0  0  0  0
 16 17  2  0  0  0  0
 16 27  1  0  0  0  0
 17 18  1  0  0  0  0
 17 19  1  0  0  0  0
 20 21  2  0  0  0  0
 20 22  1  0  0  0  0
M  CHG  1   1   1
M  END
$$$$
