ZINC000000035233      none
 OpenBabel11202420153D

 25 26  0  0  0  0  0  0  0  0999 V2000
   31.9617   36.5090   63.0828 C   0  0  0  0  0  0  0  0  0  0  0  0
   32.5221   36.4853   61.7434 O   0  0  0  0  0  0  0  0  0  0  0  0
   31.7212   36.0434   60.7523 C   0  0  0  0  0  0  0  0  0  0  0  0
   30.5855   35.6878   61.0014 O   0  0  0  0  0  0  0  0  0  0  0  0
   32.2204   35.9919   59.3739 C   0  0  0  0  0  0  0  0  0  0  0  0
   32.3305   34.5324   58.4060 S   0  0  0  0  0  0  0  0  0  0  0  0
   32.9852   35.4275   57.0389 C   0  0  0  0  0  0  0  0  0  0  0  0
   33.3785   34.9868   55.7708 C   0  0  0  0  0  0  0  0  0  0  0  0
   33.8686   35.8764   54.8467 C   0  0  0  0  0  0  0  0  0  0  0  0
   33.9790   37.2286   55.1667 C   0  0  0  0  0  0  0  0  0  0  0  0
   34.4605   38.1041   54.2441 O   0  0  0  0  0  0  0  0  0  0  0  0
   34.8321   37.5677   52.9728 C   0  0  0  0  0  0  0  0  0  0  0  0
   33.5993   37.6833   56.4057 C   0  0  0  0  0  0  0  0  0  0  0  0
   33.0909   36.7828   57.3731 C   0  0  0  0  0  0  0  0  0  0  0  0
   32.6546   37.0522   58.6810 C   0  0  0  0  0  0  0  0  0  0  0  0
   32.6795   38.7952   59.4139 Br  0  0  0  0  0  0  0  0  0  0  0  0
   31.6678   35.5000   63.3715 H   0  0  0  0  0  0  0  0  0  0  0  0
   32.7084   36.8843   63.7824 H   0  0  0  0  0  0  0  0  0  0  0  0
   31.0880   37.1608   63.0995 H   0  0  0  0  0  0  0  0  0  0  0  0
   33.2950   33.9404   55.5167 H   0  0  0  0  0  0  0  0  0  0  0  0
   34.1692   35.5275   53.8697 H   0  0  0  0  0  0  0  0  0  0  0  0
   35.1987   38.3704   52.3330 H   0  0  0  0  0  0  0  0  0  0  0  0
   35.6168   36.8234   53.1079 H   0  0  0  0  0  0  0  0  0  0  0  0
   33.9641   37.1002   52.5079 H   0  0  0  0  0  0  0  0  0  0  0  0
   33.6893   38.7329   56.6436 H   0  0  0  0  0  0  0  0  0  0  0  0
  1  2  1  0  0  0  0
  1 17  1  0  0  0  0
  1 18  1  0  0  0  0
  1 19  1  0  0  0  0
  2  3  1  0  0  0  0
  3  4  2  0  0  0  0
  3  5  1  0  0  0  0
  5 15  2  0  0  0  0
  5  6  1  0  0  0  0
  6  7  1  0  0  0  0
  7 14  2  0  0  0  0
  7  8  1  0  0  0  0
  8  9  2  0  0  0  0
  8 20  1  0  0  0  0
  9 10  1  0  0  0  0
  9 21  1  0  0  0  0
 10 11  1  0  0  0  0
 10 13  2  0  0  0  0
 11 12  1  0  0  0  0
 12 22  1  0  0  0  0
 12 23  1  0  0  0  0
 12 24  1  0  0  0  0
 13 14  1  0  0  0  0
 13 25  1  0  0  0  0
 14 15  1  0  0  0  0
 15 16  1  0  0  0  0
M  END
$$$$
