ZINC000000034645      none
 OpenBabel11202420153D

 35 37  0  0  0  0  0  0  0  0999 V2000
   31.8620   36.4494   62.1241 C   0  0  0  0  0  0  0  0  0  0  0  0
   31.4203   37.8869   61.8427 C   0  0  0  0  0  0  0  0  0  0  0  0
   32.2882   38.4717   60.8362 O   0  0  0  0  0  0  0  0  0  0  0  0
   31.9187   38.3232   59.5484 C   0  0  0  0  0  0  0  0  0  0  0  0
   30.8993   37.7215   59.2745 O   0  0  0  0  0  0  0  0  0  0  0  0
   32.7514   38.8908   58.4728 C   0  0  0  0  0  0  0  0  0  0  0  0
   32.8884   38.4080   57.2014 C   0  0  0  0  0  0  0  0  0  0  0  0
   33.7932   39.3179   56.5892 C   0  0  0  0  0  0  0  0  0  0  0  0
   34.3010   39.2659   55.1951 C   0  0  0  0  0  0  0  0  0  0  0  0
   34.6442   40.2947   54.4668 N   0  0  0  0  0  0  0  0  0  0  0  0
   35.0746   39.8107   53.2069 O   0  0  0  0  0  0  0  0  0  0  0  0
   34.9556   38.3993   53.2256 N   0  0  0  0  0  0  0  0  0  0  0  0
   34.4979   38.0507   54.3965 C   0  0  0  0  0  0  0  0  0  0  0  0
   34.2401   36.7514   54.8153 N   0  0  0  0  0  0  0  0  0  0  0  0
   35.1962   35.8064   54.2199 C   0  0  0  0  0  0  0  0  0  0  0  0
   34.9141   34.3994   54.7531 C   0  0  0  0  0  0  0  0  0  0  0  0
   33.5573   34.0496   54.4667 O   0  0  0  0  0  0  0  0  0  0  0  0
   32.5993   34.9485   55.0321 C   0  0  0  0  0  0  0  0  0  0  0  0
   32.8579   36.3611   54.5015 C   0  0  0  0  0  0  0  0  0  0  0  0
   34.0937   40.2078   57.5013 N   0  0  0  0  0  0  0  0  0  0  0  0
   33.5283   39.9881   58.5468 O   0  0  0  0  0  0  0  0  0  0  0  0
   32.8901   36.4495   62.4864 H   0  0  0  0  0  0  0  0  0  0  0  0
   31.2106   36.0104   62.8797 H   0  0  0  0  0  0  0  0  0  0  0  0
   31.8003   35.8641   61.2066 H   0  0  0  0  0  0  0  0  0  0  0  0
   31.4821   38.4723   62.7600 H   0  0  0  0  0  0  0  0  0  0  0  0
   30.3923   37.8868   61.4804 H   0  0  0  0  0  0  0  0  0  0  0  0
   32.4197   37.5387   56.7643 H   0  0  0  0  0  0  0  0  0  0  0  0
   35.0871   35.8133   53.1354 H   0  0  0  0  0  0  0  0  0  0  0  0
   36.2116   36.0998   54.4862 H   0  0  0  0  0  0  0  0  0  0  0  0
   35.0752   34.3796   55.8310 H   0  0  0  0  0  0  0  0  0  0  0  0
   35.5832   33.6861   54.2719 H   0  0  0  0  0  0  0  0  0  0  0  0
   32.6932   34.9446   56.1179 H   0  0  0  0  0  0  0  0  0  0  0  0
   31.5941   34.6331   54.7525 H   0  0  0  0  0  0  0  0  0  0  0  0
   32.1666   37.0594   54.9734 H   0  0  0  0  0  0  0  0  0  0  0  0
   32.7115   36.3769   53.4216 H   0  0  0  0  0  0  0  0  0  0  0  0
  1  2  1  0  0  0  0
  1 22  1  0  0  0  0
  1 23  1  0  0  0  0
  1 24  1  0  0  0  0
  2  3  1  0  0  0  0
  2 25  1  0  0  0  0
  2 26  1  0  0  0  0
  3  4  1  0  0  0  0
  4  5  2  0  0  0  0
  4  6  1  0  0  0  0
  6 21  1  0  0  0  0
  6  7  2  0  0  0  0
  7  8  1  0  0  0  0
  7 27  1  0  0  0  0
  8  9  1  0  0  0  0
  8 20  2  0  0  0  0
  9 13  1  0  0  0  0
  9 10  2  0  0  0  0
 10 11  1  0  0  0  0
 11 12  1  0  0  0  0
 12 13  2  0  0  0  0
 13 14  1  0  0  0  0
 14 19  1  0  0  0  0
 14 15  1  0  0  0  0
 15 16  1  0  0  0  0
 15 28  1  0  0  0  0
 15 29  1  0  0  0  0
 16 17  1  0  0  0  0
 16 30  1  0  0  0  0
 16 31  1  0  0  0  0
 17 18  1  0  0  0  0
 18 19  1  0  0  0  0
 18 32  1  0  0  0  0
 18 33  1  0  0  0  0
 19 34  1  0  0  0  0
 19 35  1  0  0  0  0
 20 21  1  0  0  0  0
M  END
$$$$
