ZINC000000035258      none
 OpenBabel11202420153D

 36 37  0  0  0  0  0  0  0  0999 V2000
   31.4534   32.5466   62.1413 O   0  0  0  0  0  0  0  0  0  0  0  0
   31.2819   33.4690   61.3688 C   0  0  0  0  0  0  0  0  0  0  0  0
   31.7315   33.3518   59.9677 C   0  0  0  0  0  0  0  0  0  0  0  0
   32.1127   34.4479   59.2904 C   0  0  0  0  0  0  0  0  0  0  0  0
   32.5620   34.3308   57.8905 C   0  0  0  0  0  0  0  0  0  0  0  0
   32.5873   33.2427   57.3495 O   0  0  0  0  0  0  0  0  0  0  0  0
   32.9809   35.5359   57.1460 C   0  0  0  0  0  0  0  0  0  0  0  0
   33.4017   35.4296   55.8176 C   0  0  0  0  0  0  0  0  0  0  0  0
   33.7913   36.5587   55.1288 C   0  0  0  0  0  0  0  0  0  0  0  0
   33.7658   37.7956   55.7500 C   0  0  0  0  0  0  0  0  0  0  0  0
   33.3504   37.9085   57.0653 C   0  0  0  0  0  0  0  0  0  0  0  0
   33.3262   39.2355   57.7205 N   0  0  0  0  0  0  0  0  0  0  0  0
   33.6716   40.2264   57.1024 O   0  0  0  0  0  0  0  0  0  0  0  0
   32.9609   39.3365   58.8781 O   0  0  0  0  0  0  0  0  0  0  0  0
   32.9528   36.7883   57.7649 C   0  0  0  0  0  0  0  0  0  0  0  0
   30.6813   34.5991   61.7914 N   0  0  0  0  0  0  0  0  0  0  0  0
   30.2352   34.7156   63.1820 C   0  0  0  0  0  0  0  0  0  0  0  0
   30.9370   35.8762   63.8391 C   0  0  0  0  0  0  0  0  0  0  0  0
   31.4689   35.7245   65.1059 C   0  0  0  0  0  0  0  0  0  0  0  0
   32.1171   36.7967   65.6991 C   0  0  0  0  0  0  0  0  0  0  0  0
   32.1977   37.9898   64.9970 C   0  0  0  0  0  0  0  0  0  0  0  0
   31.6424   38.0666   63.7339 C   0  0  0  0  0  0  0  0  0  0  0  0
   31.0368   37.0243   63.1986 N   0  0  0  0  0  0  0  0  0  0  0  0
   31.7540   32.3850   59.4869 H   0  0  0  0  0  0  0  0  0  0  0  0
   32.0904   35.4148   59.7712 H   0  0  0  0  0  0  0  0  0  0  0  0
   33.4213   34.4654   55.3315 H   0  0  0  0  0  0  0  0  0  0  0  0
   34.1167   36.4781   54.1022 H   0  0  0  0  0  0  0  0  0  0  0  0
   34.0722   38.6767   55.2057 H   0  0  0  0  0  0  0  0  0  0  0  0
   32.6245   36.8785   58.7898 H   0  0  0  0  0  0  0  0  0  0  0  0
   30.5444   35.3355   61.1749 H   0  0  0  0  0  0  0  0  0  0  0  0
   30.4727   33.7967   63.7181 H   0  0  0  0  0  0  0  0  0  0  0  0
   29.1581   34.8818   63.2053 H   0  0  0  0  0  0  0  0  0  0  0  0
   31.3835   34.7816   65.6256 H   0  0  0  0  0  0  0  0  0  0  0  0
   32.5456   36.7062   66.6864 H   0  0  0  0  0  0  0  0  0  0  0  0
   32.6923   38.8467   65.4299 H   0  0  0  0  0  0  0  0  0  0  0  0
   31.7046   38.9909   63.1789 H   0  0  0  0  0  0  0  0  0  0  0  0
  1  2  2  0  0  0  0
  2  3  1  0  0  0  0
  2 16  1  0  0  0  0
  3  4  2  0  0  0  0
  3 24  1  0  0  0  0
  4  5  1  0  0  0  0
  4 25  1  0  0  0  0
  5  6  2  0  0  0  0
  5  7  1  0  0  0  0
  7 15  2  0  0  0  0
  7  8  1  0  0  0  0
  8  9  2  0  0  0  0
  8 26  1  0  0  0  0
  9 10  1  0  0  0  0
  9 27  1  0  0  0  0
 10 11  2  0  0  0  0
 10 28  1  0  0  0  0
 11 12  1  0  0  0  0
 11 15  1  0  0  0  0
 12 13  2  0  0  0  0
 12 14  2  0  0  0  0
 15 29  1  0  0  0  0
 16 17  1  0  0  0  0
 16 30  1  0  0  0  0
 17 18  1  0  0  0  0
 17 31  1  0  0  0  0
 17 32  1  0  0  0  0
 18 23  2  0  0  0  0
 18 19  1  0  0  0  0
 19 20  2  0  0  0  0
 19 33  1  0  0  0  0
 20 21  1  0  0  0  0
 20 34  1  0  0  0  0
 21 22  2  0  0  0  0
 21 35  1  0  0  0  0
 22 23  1  0  0  0  0
 22 36  1  0  0  0  0
M  END
$$$$
