ZINC000000027608      none
 OpenBabel11202420153D

 24 24  0  0  0  0  0  0  0  0999 V2000
   31.1204   34.3759   62.3320 C   0  0  0  0  0  0  0  0  0  0  0  0
   30.7456   34.1767   60.9434 O   0  0  0  0  0  0  0  0  0  0  0  0
   31.5798   33.4475   60.1856 C   0  0  0  0  0  0  0  0  0  0  0  0
   32.5896   32.9908   60.6667 O   0  0  0  0  0  0  0  0  0  0  0  0
   31.2568   33.1983   58.7348 C   0  0  0  0  0  0  0  0  0  0  0  0
   32.3740   33.7679   57.8585 C   0  0  0  0  0  0  0  0  0  0  0  0
   32.4944   35.2508   58.0988 C   0  0  0  0  0  0  0  0  0  0  0  0
   32.2111   35.7143   59.1831 O   0  0  0  0  0  0  0  0  0  0  0  0
   32.9171   36.0617   57.1087 N   0  0  0  0  0  0  0  0  0  0  0  0
   33.0338   37.4287   57.3322 C   0  0  0  0  0  0  0  0  0  0  0  0
   33.4343   38.2932   56.4533 N   0  0  0  0  0  0  0  0  0  0  0  0
   33.4809   39.5558   56.8352 C   0  0  0  0  0  0  0  0  0  0  0  0
   33.1121   39.7668   58.1002 C   0  0  0  0  0  0  0  0  0  0  0  0
   32.6769   38.2136   58.8085 S   0  0  0  0  0  0  0  0  0  0  0  0
   30.3622   34.9805   62.8297 H   0  0  0  0  0  0  0  0  0  0  0  0
   31.1985   33.4091   62.8295 H   0  0  0  0  0  0  0  0  0  0  0  0
   32.0817   34.8875   62.3790 H   0  0  0  0  0  0  0  0  0  0  0  0
   30.3143   33.6847   58.4838 H   0  0  0  0  0  0  0  0  0  0  0  0
   31.1697   32.1257   58.5611 H   0  0  0  0  0  0  0  0  0  0  0  0
   32.1404   33.5876   56.8092 H   0  0  0  0  0  0  0  0  0  0  0  0
   33.3166   33.2814   58.1095 H   0  0  0  0  0  0  0  0  0  0  0  0
   33.1438   35.6910   56.2416 H   0  0  0  0  0  0  0  0  0  0  0  0
   33.7965   40.3530   56.1785 H   0  0  0  0  0  0  0  0  0  0  0  0
   33.0850   40.7227   58.6020 H   0  0  0  0  0  0  0  0  0  0  0  0
  1  2  1  0  0  0  0
  1 15  1  0  0  0  0
  1 16  1  0  0  0  0
  1 17  1  0  0  0  0
  2  3  1  0  0  0  0
  3  4  2  0  0  0  0
  3  5  1  0  0  0  0
  5  6  1  0  0  0  0
  5 18  1  0  0  0  0
  5 19  1  0  0  0  0
  6  7  1  0  0  0  0
  6 20  1  0  0  0  0
  6 21  1  0  0  0  0
  7  8  2  0  0  0  0
  7  9  1  0  0  0  0
  9 10  1  0  0  0  0
  9 22  1  0  0  0  0
 10 14  1  0  0  0  0
 10 11  2  0  0  0  0
 11 12  1  0  0  0  0
 12 13  2  0  0  0  0
 12 23  1  0  0  0  0
 13 14  1  0  0  0  0
 13 24  1  0  0  0  0
M  END
$$$$
