ZINC000000002698      none
 OpenBabel11202420153D

 20 21  0  0  0  0  0  0  0  0999 V2000
   31.2120   33.0900   60.0807 S   0  0  0  0  0  0  0  0  0  0  0  0
   31.1920   33.0746   58.3689 C   0  0  0  0  0  0  0  0  0  0  0  0
   30.2819   32.4525   57.5940 N   0  0  0  0  0  0  0  0  0  0  0  0
   29.5217   31.9386   57.9083 H   0  0  0  0  0  0  0  0  0  0  0  0
   30.6191   32.6808   56.2686 C   0  0  0  0  0  0  0  0  0  0  0  0
   31.7167   33.4296   56.2492 C   0  0  0  0  0  0  0  0  0  0  0  0
   32.0841   33.6821   57.5620 N   0  0  0  0  0  0  0  0  0  0  0  0
   33.2400   34.4705   57.9958 C   0  0  0  0  0  0  0  0  0  0  0  0
   32.8361   35.9148   58.1437 C   0  0  0  0  0  0  0  0  0  0  0  0
   32.3574   36.4692   59.2585 C   0  0  0  0  0  0  0  0  0  0  0  0
   32.0569   37.8167   59.1573 C   0  0  0  0  0  0  0  0  0  0  0  0
   32.2831   38.3544   57.9578 C   0  0  0  0  0  0  0  0  0  0  0  0
   32.9164   37.1256   56.8704 S   0  0  0  0  0  0  0  0  0  0  0  0
   30.0840   32.3148   55.4048 H   0  0  0  0  0  0  0  0  0  0  0  0
   32.2318   33.7793   55.3666 H   0  0  0  0  0  0  0  0  0  0  0  0
   33.5981   34.0935   58.9538 H   0  0  0  0  0  0  0  0  0  0  0  0
   34.0343   34.3895   57.2537 H   0  0  0  0  0  0  0  0  0  0  0  0
   32.2175   35.9098   60.1716 H   0  0  0  0  0  0  0  0  0  0  0  0
   31.6655   38.3883   59.9858 H   0  0  0  0  0  0  0  0  0  0  0  0
   32.1050   39.3866   57.6946 H   0  0  0  0  0  0  0  0  0  0  0  0
  1  2  2  0  0  0  0
  2  7  1  0  0  0  0
  2  3  1  0  0  0  0
  3  4  1  0  0  0  0
  3  5  1  0  0  0  0
  5  6  2  0  0  0  0
  5 14  1  0  0  0  0
  6  7  1  0  0  0  0
  6 15  1  0  0  0  0
  7  8  1  0  0  0  0
  8  9  1  0  0  0  0
  8 16  1  0  0  0  0
  8 17  1  0  0  0  0
  9 13  1  0  0  0  0
  9 10  2  0  0  0  0
 10 11  1  0  0  0  0
 10 18  1  0  0  0  0
 11 12  2  0  0  0  0
 11 19  1  0  0  0  0
 12 13  1  0  0  0  0
 12 20  1  0  0  0  0
M  END
$$$$
