ZINC000000032910      none
 OpenBabel11202420153D

 33 35  0  0  0  0  0  0  0  0999 V2000
   30.1386   36.8727   65.4534 C   0  0  0  0  0  0  0  0  0  0  0  0
   30.3867   35.6425   64.6190 C   0  0  0  0  0  0  0  0  0  0  0  0
   29.5653   34.5278   64.7886 C   0  0  0  0  0  0  0  0  0  0  0  0
   29.7492   33.3948   64.0684 C   0  0  0  0  0  0  0  0  0  0  0  0
   30.7931   33.3269   63.1117 C   0  0  0  0  0  0  0  0  0  0  0  0
   31.1658   32.3496   62.3012 N   0  0  0  0  0  0  0  0  0  0  0  0
   32.3838   32.8166   61.4539 S   0  0  0  0  0  0  0  0  0  0  0  0
   32.5651   34.2601   62.0042 N   0  0  0  0  0  0  0  0  0  0  0  0
   31.6495   34.4962   62.9300 C   0  0  0  0  0  0  0  0  0  0  0  0
   31.3990   35.6476   63.7182 C   0  0  0  0  0  0  0  0  0  0  0  0
   32.4072   37.0806   63.5319 S   0  0  0  0  0  0  0  0  0  0  0  0
   31.5833   38.1947   63.8471 O   0  0  0  0  0  0  0  0  0  0  0  0
   33.6282   36.8023   64.2034 O   0  0  0  0  0  0  0  0  0  0  0  0
   32.7780   37.2134   61.9235 N   0  0  0  0  0  0  0  0  0  0  0  0
   31.7070   37.3598   60.9345 C   0  0  0  0  0  0  0  0  0  0  0  0
   32.3069   37.4595   59.5556 C   0  0  0  0  0  0  0  0  0  0  0  0
   32.6402   38.6955   59.0226 C   0  0  0  0  0  0  0  0  0  0  0  0
   33.1936   38.7388   57.7523 C   0  0  0  0  0  0  0  0  0  0  0  0
   33.3835   37.5576   57.0598 C   0  0  0  0  0  0  0  0  0  0  0  0
   33.0499   36.4003   57.5962 N   0  0  0  0  0  0  0  0  0  0  0  0
   32.5263   36.3208   58.8041 C   0  0  0  0  0  0  0  0  0  0  0  0
   29.5230   37.5748   64.8912 H   0  0  0  0  0  0  0  0  0  0  0  0
   29.6226   36.5911   66.3712 H   0  0  0  0  0  0  0  0  0  0  0  0
   31.0907   37.3417   65.7010 H   0  0  0  0  0  0  0  0  0  0  0  0
   28.7666   34.5673   65.5144 H   0  0  0  0  0  0  0  0  0  0  0  0
   29.1015   32.5446   64.2232 H   0  0  0  0  0  0  0  0  0  0  0  0
   33.7042   37.1942   61.6360 H   0  0  0  0  0  0  0  0  0  0  0  0
   31.0477   36.4932   60.9821 H   0  0  0  0  0  0  0  0  0  0  0  0
   31.1359   38.2631   61.1485 H   0  0  0  0  0  0  0  0  0  0  0  0
   32.4762   39.6027   59.5854 H   0  0  0  0  0  0  0  0  0  0  0  0
   33.4686   39.6837   57.3075 H   0  0  0  0  0  0  0  0  0  0  0  0
   33.8104   37.5831   56.0681 H   0  0  0  0  0  0  0  0  0  0  0  0
   32.2656   35.3547   59.2103 H   0  0  0  0  0  0  0  0  0  0  0  0
  1  2  1  0  0  0  0
  1 22  1  0  0  0  0
  1 23  1  0  0  0  0
  1 24  1  0  0  0  0
  2 10  2  0  0  0  0
  2  3  1  0  0  0  0
  3  4  2  0  0  0  0
  3 25  1  0  0  0  0
  4  5  1  0  0  0  0
  4 26  1  0  0  0  0
  5  9  1  0  0  0  0
  5  6  2  0  0  0  0
  6  7  1  0  0  0  0
  7  8  1  0  0  0  0
  8  9  2  0  0  0  0
  9 10  1  0  0  0  0
 10 11  1  0  0  0  0
 11 12  2  0  0  0  0
 11 13  2  0  0  0  0
 11 14  1  0  0  0  0
 14 15  1  0  0  0  0
 14 27  1  0  0  0  0
 15 16  1  0  0  0  0
 15 28  1  0  0  0  0
 15 29  1  0  0  0  0
 16 21  2  0  0  0  0
 16 17  1  0  0  0  0
 17 18  2  0  0  0  0
 17 30  1  0  0  0  0
 18 19  1  0  0  0  0
 18 31  1  0  0  0  0
 19 20  2  0  0  0  0
 19 32  1  0  0  0  0
 20 21  1  0  0  0  0
 21 33  1  0  0  0  0
M  END
$$$$
