ZINC000000034170      none
 OpenBabel11202420153D

 39 41  0  0  0  0  0  0  0  0999 V2000
   32.6885   36.3776   62.9716 C   0  0  0  0  0  0  0  0  0  0  0  0
   31.4872   36.8510   62.2710 N   0  0  0  0  0  0  0  0  0  0  0  0
   30.9147   35.7899   61.4319 C   0  0  0  0  0  0  0  0  0  0  0  0
   31.6686   35.6976   60.1792 N   0  0  0  0  0  0  0  0  0  0  0  0
   32.0903   34.5640   59.5844 C   0  0  0  0  0  0  0  0  0  0  0  0
   31.9044   33.4387   60.0060 O   0  0  0  0  0  0  0  0  0  0  0  0
   32.7468   34.8698   58.4543 O   0  0  0  0  0  0  0  0  0  0  0  0
   32.7610   36.2162   58.2980 C   0  0  0  0  0  0  0  0  0  0  0  0
   33.2922   37.0494   57.3258 C   0  0  0  0  0  0  0  0  0  0  0  0
   33.1456   38.4184   57.4367 C   0  0  0  0  0  0  0  0  0  0  0  0
   32.4701   38.9635   58.5148 C   0  0  0  0  0  0  0  0  0  0  0  0
   31.9376   38.1412   59.4886 C   0  0  0  0  0  0  0  0  0  0  0  0
   32.0760   36.7662   59.3811 C   0  0  0  0  0  0  0  0  0  0  0  0
   30.4919   37.3654   63.2211 C   0  0  0  0  0  0  0  0  0  0  0  0
   30.8720   38.7878   63.6376 C   0  0  0  0  0  0  0  0  0  0  0  0
   29.8354   39.3236   64.6273 C   0  0  0  0  0  0  0  0  0  0  0  0
   29.7976   38.4231   65.8637 C   0  0  0  0  0  0  0  0  0  0  0  0
   29.4175   37.0008   65.4472 C   0  0  0  0  0  0  0  0  0  0  0  0
   30.4541   36.4650   64.4575 C   0  0  0  0  0  0  0  0  0  0  0  0
   33.4362   36.0675   62.2417 H   0  0  0  0  0  0  0  0  0  0  0  0
   33.0920   37.1828   63.5856 H   0  0  0  0  0  0  0  0  0  0  0  0
   32.4284   35.5314   63.6075 H   0  0  0  0  0  0  0  0  0  0  0  0
   30.9708   34.8385   61.9608 H   0  0  0  0  0  0  0  0  0  0  0  0
   29.8726   36.0226   61.2125 H   0  0  0  0  0  0  0  0  0  0  0  0
   33.8205   36.6288   56.4830 H   0  0  0  0  0  0  0  0  0  0  0  0
   33.5597   39.0664   56.6784 H   0  0  0  0  0  0  0  0  0  0  0  0
   32.3592   40.0348   58.5949 H   0  0  0  0  0  0  0  0  0  0  0  0
   31.4111   38.5683   60.3293 H   0  0  0  0  0  0  0  0  0  0  0  0
   29.5097   37.3754   62.7487 H   0  0  0  0  0  0  0  0  0  0  0  0
   31.8543   38.7779   64.1100 H   0  0  0  0  0  0  0  0  0  0  0  0
   30.8990   39.4294   62.7568 H   0  0  0  0  0  0  0  0  0  0  0  0
   28.8532   39.3336   64.1547 H   0  0  0  0  0  0  0  0  0  0  0  0
   30.1062   40.3369   64.9239 H   0  0  0  0  0  0  0  0  0  0  0  0
   29.0591   38.8048   66.5686 H   0  0  0  0  0  0  0  0  0  0  0  0
   30.7798   38.4131   66.3360 H   0  0  0  0  0  0  0  0  0  0  0  0
   28.4353   37.0107   64.9747 H   0  0  0  0  0  0  0  0  0  0  0  0
   29.3905   36.3593   66.3279 H   0  0  0  0  0  0  0  0  0  0  0  0
   30.1833   35.4517   64.1608 H   0  0  0  0  0  0  0  0  0  0  0  0
   31.4363   36.4550   64.9300 H   0  0  0  0  0  0  0  0  0  0  0  0
  1  2  1  0  0  0  0
  1 20  1  0  0  0  0
  1 21  1  0  0  0  0
  1 22  1  0  0  0  0
  2  3  1  0  0  0  0
  2 14  1  0  0  0  0
  3  4  1  0  0  0  0
  3 23  1  0  0  0  0
  3 24  1  0  0  0  0
  4 13  1  0  0  0  0
  4  5  1  0  0  0  0
  5  6  2  0  0  0  0
  5  7  1  0  0  0  0
  7  8  1  0  0  0  0
  8 13  2  0  0  0  0
  8  9  1  0  0  0  0
  9 10  2  0  0  0  0
  9 25  1  0  0  0  0
 10 11  1  0  0  0  0
 10 26  1  0  0  0  0
 11 12  2  0  0  0  0
 11 27  1  0  0  0  0
 12 13  1  0  0  0  0
 12 28  1  0  0  0  0
 14 19  1  0  0  0  0
 14 15  1  0  0  0  0
 14 29  1  0  0  0  0
 15 16  1  0  0  0  0
 15 30  1  0  0  0  0
 15 31  1  0  0  0  0
 16 17  1  0  0  0  0
 16 32  1  0  0  0  0
 16 33  1  0  0  0  0
 17 18  1  0  0  0  0
 17 34  1  0  0  0  0
 17 35  1  0  0  0  0
 18 19  1  0  0  0  0
 18 36  1  0  0  0  0
 18 37  1  0  0  0  0
 19 38  1  0  0  0  0
 19 39  1  0  0  0  0
M  END
$$$$
