ZINC000000052639      none
 OpenBabel11202420153D

 35 37  0  0  0  0  0  0  0  0999 V2000
   33.3953   33.4408   58.1453 O   0  0  0  0  0  0  0  0  0  0  0  0
   33.1921   34.0728   57.1266 C   0  0  0  0  0  0  0  0  0  0  0  0
   32.6908   35.3218   57.1970 N   0  0  0  0  0  0  0  0  0  0  0  0
   32.4057   35.8884   58.4359 C   0  0  0  0  0  0  0  0  0  0  0  0
   32.5756   35.3232   59.5932 N   0  0  0  0  0  0  0  0  0  0  0  0
   32.2677   35.9850   60.6215 N   0  0  0  0  0  0  0  0  0  0  0  0
   31.7912   37.1832   60.4498 C   0  0  0  0  0  0  0  0  0  0  0  0
   31.2849   38.2918   61.7223 S   0  0  0  0  0  0  0  0  0  0  0  0
   31.5985   37.3446   63.2373 C   0  0  0  0  0  0  0  0  0  0  0  0
   31.6884   38.2872   64.4095 C   0  0  0  0  0  0  0  0  0  0  0  0
   32.6976   38.1361   65.3422 C   0  0  0  0  0  0  0  0  0  0  0  0
   32.7829   39.0038   66.4149 C   0  0  0  0  0  0  0  0  0  0  0  0
   31.8537   40.0160   66.5608 C   0  0  0  0  0  0  0  0  0  0  0  0
   30.8410   40.1641   65.6309 C   0  0  0  0  0  0  0  0  0  0  0  0
   30.7587   39.2996   64.5554 C   0  0  0  0  0  0  0  0  0  0  0  0
   31.7418   37.4996   58.7142 S   0  0  0  0  0  0  0  0  0  0  0  0
   33.4947   33.4716   55.8121 C   0  0  0  0  0  0  0  0  0  0  0  0
   32.7944   33.8822   54.6756 C   0  0  0  0  0  0  0  0  0  0  0  0
   33.0769   33.3136   53.4523 C   0  0  0  0  0  0  0  0  0  0  0  0
   34.0613   32.3427   53.3468 C   0  0  0  0  0  0  0  0  0  0  0  0
   34.3374   31.7921   52.1445 F   0  0  0  0  0  0  0  0  0  0  0  0
   34.7599   31.9317   54.4718 C   0  0  0  0  0  0  0  0  0  0  0  0
   34.4819   32.4897   55.7010 C   0  0  0  0  0  0  0  0  0  0  0  0
   32.5287   35.8260   56.3844 H   0  0  0  0  0  0  0  0  0  0  0  0
   30.7836   36.6391   63.4000 H   0  0  0  0  0  0  0  0  0  0  0  0
   32.5368   36.7989   63.1369 H   0  0  0  0  0  0  0  0  0  0  0  0
   33.4214   37.3423   65.2307 H   0  0  0  0  0  0  0  0  0  0  0  0
   33.5735   38.8878   67.1416 H   0  0  0  0  0  0  0  0  0  0  0  0
   31.9173   40.6913   67.4012 H   0  0  0  0  0  0  0  0  0  0  0  0
   30.1142   40.9549   65.7450 H   0  0  0  0  0  0  0  0  0  0  0  0
   29.9676   39.4150   63.8291 H   0  0  0  0  0  0  0  0  0  0  0  0
   32.0296   34.6406   54.7561 H   0  0  0  0  0  0  0  0  0  0  0  0
   32.5328   33.6272   52.5736 H   0  0  0  0  0  0  0  0  0  0  0  0
   35.5231   31.1725   54.3847 H   0  0  0  0  0  0  0  0  0  0  0  0
   35.0262   32.1684   56.5767 H   0  0  0  0  0  0  0  0  0  0  0  0
  1  2  2  0  0  0  0
  2  3  1  0  0  0  0
  2 17  1  0  0  0  0
  3  4  1  0  0  0  0
  3 24  1  0  0  0  0
  4 16  1  0  0  0  0
  4  5  2  0  0  0  0
  5  6  1  0  0  0  0
  6  7  2  0  0  0  0
  7  8  1  0  0  0  0
  7 16  1  0  0  0  0
  8  9  1  0  0  0  0
  9 10  1  0  0  0  0
  9 25  1  0  0  0  0
  9 26  1  0  0  0  0
 10 15  2  0  0  0  0
 10 11  1  0  0  0  0
 11 12  2  0  0  0  0
 11 27  1  0  0  0  0
 12 13  1  0  0  0  0
 12 28  1  0  0  0  0
 13 14  2  0  0  0  0
 13 29  1  0  0  0  0
 14 15  1  0  0  0  0
 14 30  1  0  0  0  0
 15 31  1  0  0  0  0
 17 23  2  0  0  0  0
 17 18  1  0  0  0  0
 18 19  2  0  0  0  0
 18 32  1  0  0  0  0
 19 20  1  0  0  0  0
 19 33  1  0  0  0  0
 20 21  1  0  0  0  0
 20 22  2  0  0  0  0
 22 23  1  0  0  0  0
 22 34  1  0  0  0  0
 23 35  1  0  0  0  0
M  END
$$$$
