ZINC000000024972      none
 OpenBabel11202420153D

 28 30  0  0  0  0  0  0  0  0999 V2000
   32.7090   32.9623   60.7131 C   0  0  0  0  0  0  0  0  0  0  0  0
   31.4523   33.2859   61.0213 C   0  0  0  0  0  0  0  0  0  0  0  0
   30.8502   34.4737   59.8723 S   0  0  0  0  0  0  0  0  0  0  0  0
   32.3814   34.4566   59.0070 C   0  0  0  0  0  0  0  0  0  0  0  0
   32.6977   35.2794   57.7846 C   0  0  0  0  0  0  0  0  0  0  0  0
   33.2690   36.5685   58.1964 N   0  0  0  0  0  0  0  0  0  0  0  0
   32.3188   37.3235   59.0418 C   0  0  0  0  0  0  0  0  0  0  0  0
   32.6581   38.7946   58.7081 C   0  0  0  0  0  0  0  0  0  0  0  0
   33.2519   38.6961   57.3171 C   0  0  0  0  0  0  0  0  0  0  0  0
   33.4867   39.6534   56.3525 C   0  0  0  0  0  0  0  0  0  0  0  0
   34.0450   39.2929   55.1395 C   0  0  0  0  0  0  0  0  0  0  0  0
   34.3679   37.9705   54.8954 C   0  0  0  0  0  0  0  0  0  0  0  0
   34.1379   37.0098   55.8578 C   0  0  0  0  0  0  0  0  0  0  0  0
   33.5777   37.3654   57.0837 C   0  0  0  0  0  0  0  0  0  0  0  0
   33.2219   33.6085   59.6015 C   0  0  0  0  0  0  0  0  0  0  0  0
   33.2833   32.2505   61.2877 H   0  0  0  0  0  0  0  0  0  0  0  0
   30.8916   32.8836   61.8523 H   0  0  0  0  0  0  0  0  0  0  0  0
   31.7837   35.4520   57.2163 H   0  0  0  0  0  0  0  0  0  0  0  0
   33.4165   34.7452   57.1631 H   0  0  0  0  0  0  0  0  0  0  0  0
   32.4920   37.1168   60.0978 H   0  0  0  0  0  0  0  0  0  0  0  0
   31.2895   37.0924   58.7678 H   0  0  0  0  0  0  0  0  0  0  0  0
   31.7560   39.4065   58.7004 H   0  0  0  0  0  0  0  0  0  0  0  0
   33.3890   39.1915   59.4127 H   0  0  0  0  0  0  0  0  0  0  0  0
   33.2341   40.6858   56.5444 H   0  0  0  0  0  0  0  0  0  0  0  0
   34.2287   40.0429   54.3844 H   0  0  0  0  0  0  0  0  0  0  0  0
   34.8022   37.6890   53.9475 H   0  0  0  0  0  0  0  0  0  0  0  0
   34.3923   35.9788   55.6609 H   0  0  0  0  0  0  0  0  0  0  0  0
   34.2262   33.4384   59.2427 H   0  0  0  0  0  0  0  0  0  0  0  0
  1 15  1  0  0  0  0
  1  2  2  0  0  0  0
  1 16  1  0  0  0  0
  2  3  1  0  0  0  0
  2 17  1  0  0  0  0
  3  4  1  0  0  0  0
  4  5  1  0  0  0  0
  4 15  2  0  0  0  0
  5  6  1  0  0  0  0
  5 18  1  0  0  0  0
  5 19  1  0  0  0  0
  6 14  1  0  0  0  0
  6  7  1  0  0  0  0
  7  8  1  0  0  0  0
  7 20  1  0  0  0  0
  7 21  1  0  0  0  0
  8  9  1  0  0  0  0
  8 22  1  0  0  0  0
  8 23  1  0  0  0  0
  9 14  2  0  0  0  0
  9 10  1  0  0  0  0
 10 11  2  0  0  0  0
 10 24  1  0  0  0  0
 11 12  1  0  0  0  0
 11 25  1  0  0  0  0
 12 13  2  0  0  0  0
 12 26  1  0  0  0  0
 13 14  1  0  0  0  0
 13 27  1  0  0  0  0
 15 28  1  0  0  0  0
M  END
$$$$
