ZINC000000026338      none
 OpenBabel11202420153D

 33 37  0  0  0  0  0  0  0  0999 V2000
   33.3792   40.1142   57.7547 O   0  0  0  0  0  0  0  0  0  0  0  0
   33.1830   38.9228   57.8908 C   0  0  0  0  0  0  0  0  0  0  0  0
   32.6388   38.4030   59.1625 C   0  0  0  0  0  0  0  0  0  0  0  0
   32.2791   39.0406   60.3203 N   0  0  0  0  0  0  0  0  0  0  0  0
   32.3369   39.9980   60.4655 H   0  0  0  0  0  0  0  0  0  0  0  0
   31.8195   38.1352   61.2446 C   0  0  0  0  0  0  0  0  0  0  0  0
   31.3427   38.2674   62.5479 C   0  0  0  0  0  0  0  0  0  0  0  0
   30.9425   37.1518   63.2471 C   0  0  0  0  0  0  0  0  0  0  0  0
   31.0079   35.8901   62.6684 C   0  0  0  0  0  0  0  0  0  0  0  0
   31.4710   35.7359   61.3928 C   0  0  0  0  0  0  0  0  0  0  0  0
   31.8827   36.8535   60.6640 C   0  0  0  0  0  0  0  0  0  0  0  0
   32.4173   37.0454   59.3114 C   0  0  0  0  0  0  0  0  0  0  0  0
   32.7183   36.1093   58.2148 C   0  0  0  0  0  0  0  0  0  0  0  0
   32.5195   34.9192   58.3583 O   0  0  0  0  0  0  0  0  0  0  0  0
   33.2638   36.6213   56.9386 C   0  0  0  0  0  0  0  0  0  0  0  0
   33.5593   35.7531   55.8799 C   0  0  0  0  0  0  0  0  0  0  0  0
   34.0429   36.1998   54.7460 N   0  0  0  0  0  0  0  0  0  0  0  0
   34.2803   37.4972   54.5362 C   0  0  0  0  0  0  0  0  0  0  0  0
   34.8003   37.9464   53.3085 C   0  0  0  0  0  0  0  0  0  0  0  0
   35.0343   39.2728   53.1179 C   0  0  0  0  0  0  0  0  0  0  0  0
   34.7674   40.2031   54.1222 C   0  0  0  0  0  0  0  0  0  0  0  0
   34.2638   39.8078   55.3240 C   0  0  0  0  0  0  0  0  0  0  0  0
   34.0096   38.4484   55.5571 C   0  0  0  0  0  0  0  0  0  0  0  0
   33.4886   37.9923   56.7857 C   0  0  0  0  0  0  0  0  0  0  0  0
   31.2880   39.2430   63.0080 H   0  0  0  0  0  0  0  0  0  0  0  0
   30.5735   37.2578   64.2565 H   0  0  0  0  0  0  0  0  0  0  0  0
   30.6898   35.0250   63.2312 H   0  0  0  0  0  0  0  0  0  0  0  0
   31.5185   34.7524   60.9491 H   0  0  0  0  0  0  0  0  0  0  0  0
   33.3849   34.6941   56.0000 H   0  0  0  0  0  0  0  0  0  0  0  0
   35.0132   37.2401   52.5197 H   0  0  0  0  0  0  0  0  0  0  0  0
   35.4338   39.6111   52.1733 H   0  0  0  0  0  0  0  0  0  0  0  0
   34.9621   41.2504   53.9443 H   0  0  0  0  0  0  0  0  0  0  0  0
   34.0607   40.5376   56.0939 H   0  0  0  0  0  0  0  0  0  0  0  0
  1  2  2  0  0  0  0
  2 24  1  0  0  0  0
  2  3  1  0  0  0  0
  3 12  2  0  0  0  0
  3  4  1  0  0  0  0
  4  5  1  0  0  0  0
  4  6  1  0  0  0  0
  6 11  2  0  0  0  0
  6  7  1  0  0  0  0
  7  8  2  0  0  0  0
  7 25  1  0  0  0  0
  8  9  1  0  0  0  0
  8 26  1  0  0  0  0
  9 10  2  0  0  0  0
  9 27  1  0  0  0  0
 10 11  1  0  0  0  0
 10 28  1  0  0  0  0
 11 12  1  0  0  0  0
 12 13  1  0  0  0  0
 13 14  2  0  0  0  0
 13 15  1  0  0  0  0
 15 24  2  0  0  0  0
 15 16  1  0  0  0  0
 16 17  2  0  0  0  0
 16 29  1  0  0  0  0
 17 18  1  0  0  0  0
 18 23  2  0  0  0  0
 18 19  1  0  0  0  0
 19 20  2  0  0  0  0
 19 30  1  0  0  0  0
 20 21  1  0  0  0  0
 20 31  1  0  0  0  0
 21 22  2  0  0  0  0
 21 32  1  0  0  0  0
 22 23  1  0  0  0  0
 22 33  1  0  0  0  0
 23 24  1  0  0  0  0
M  END
$$$$
