ZINC000000054564      none
 OpenBabel11202420153D

 30 32  0  0  0  0  0  0  0  0999 V2000
   32.6695   35.4940   54.5794 C   0  0  0  0  0  0  0  0  0  0  0  0
   33.9787   36.2549   54.3610 C   0  0  0  0  0  0  0  0  0  0  0  0
   35.1610   35.3463   54.7040 C   0  0  0  0  0  0  0  0  0  0  0  0
   34.0780   36.6921   52.8961 C   0  0  0  0  0  0  0  0  0  0  0  0
   35.2813   37.6180   52.6922 C   0  0  0  0  0  0  0  0  0  0  0  0
   35.0455   38.8962   53.4819 C   0  0  0  0  0  0  0  0  0  0  0  0
   35.2906   39.9948   53.0296 O   0  0  0  0  0  0  0  0  0  0  0  0
   34.4990   38.7041   54.8384 C   0  0  0  0  0  0  0  0  0  0  0  0
   34.3765   39.5641   55.8493 N   0  0  0  0  0  0  0  0  0  0  0  0
   33.8454   38.9614   56.8612 N   0  0  0  0  0  0  0  0  0  0  0  0
   33.5965   37.6230   56.5113 N   0  0  0  0  0  0  0  0  0  0  0  0
   33.0295   36.6385   57.3284 C   0  0  0  0  0  0  0  0  0  0  0  0
   33.2710   35.3599   57.2612 N   0  0  0  0  0  0  0  0  0  0  0  0
   32.5002   34.7182   58.2618 O   0  0  0  0  0  0  0  0  0  0  0  0
   31.7598   35.7184   58.9390 N   0  0  0  0  0  0  0  0  0  0  0  0
   32.0581   36.8692   58.4013 C   0  0  0  0  0  0  0  0  0  0  0  0
   31.5429   38.1033   58.7815 N   0  0  0  0  0  0  0  0  0  0  0  0
   34.0061   37.4718   55.2451 C   0  0  0  0  0  0  0  0  0  0  0  0
   32.3731   35.0067   53.6505 H   0  0  0  0  0  0  0  0  0  0  0  0
   32.8116   34.7415   55.3551 H   0  0  0  0  0  0  0  0  0  0  0  0
   31.8910   36.1916   54.8883 H   0  0  0  0  0  0  0  0  0  0  0  0
   36.0933   35.8893   54.5496 H   0  0  0  0  0  0  0  0  0  0  0  0
   35.0899   35.0356   55.7464 H   0  0  0  0  0  0  0  0  0  0  0  0
   35.1420   34.4667   54.0606 H   0  0  0  0  0  0  0  0  0  0  0  0
   34.1913   35.8108   52.2647 H   0  0  0  0  0  0  0  0  0  0  0  0
   33.1664   37.2201   52.6160 H   0  0  0  0  0  0  0  0  0  0  0  0
   36.1861   37.1269   53.0502 H   0  0  0  0  0  0  0  0  0  0  0  0
   35.3850   37.8562   51.6336 H   0  0  0  0  0  0  0  0  0  0  0  0
   31.8252   38.9093   58.3215 H   0  0  0  0  0  0  0  0  0  0  0  0
   30.9011   38.1584   59.5069 H   0  0  0  0  0  0  0  0  0  0  0  0
  1  2  1  0  0  0  0
  1 19  1  0  0  0  0
  1 20  1  0  0  0  0
  1 21  1  0  0  0  0
  2 18  1  0  0  0  0
  2  3  1  0  0  0  0
  2  4  1  0  0  0  0
  3 22  1  0  0  0  0
  3 23  1  0  0  0  0
  3 24  1  0  0  0  0
  4  5  1  0  0  0  0
  4 25  1  0  0  0  0
  4 26  1  0  0  0  0
  5  6  1  0  0  0  0
  5 27  1  0  0  0  0
  5 28  1  0  0  0  0
  6  7  2  0  0  0  0
  6  8  1  0  0  0  0
  8 18  2  0  0  0  0
  8  9  1  0  0  0  0
  9 10  2  0  0  0  0
 10 11  1  0  0  0  0
 11 12  1  0  0  0  0
 11 18  1  0  0  0  0
 12 16  1  0  0  0  0
 12 13  2  0  0  0  0
 13 14  1  0  0  0  0
 14 15  1  0  0  0  0
 15 16  2  0  0  0  0
 16 17  1  0  0  0  0
 17 29  1  0  0  0  0
 17 30  1  0  0  0  0
M  END
$$$$
