ZINC000000001277      none
 OpenBabel11202420153D

 30 30  0  0  0  0  0  0  0  0999 V2000
   30.0154   39.5095   64.9532 C   0  0  0  0  0  0  0  0  0  0  0  0
   30.6670   38.1344   65.1131 C   0  0  0  0  0  0  0  0  0  0  0  0
   30.6011   37.4289   63.8722 O   0  0  0  0  0  0  0  0  0  0  0  0
   31.1926   35.9445   63.6749 P   0  0  0  0  0  0  0  0  0  0  0  0
   33.0374   36.0387   63.4286 S   0  0  0  0  0  0  0  0  0  0  0  0
   30.8700   35.0603   64.9812 O   0  0  0  0  0  0  0  0  0  0  0  0
   29.5405   34.8015   65.4369 C   0  0  0  0  0  0  0  0  0  0  0  0
   28.7609   34.0674   64.3441 C   0  0  0  0  0  0  0  0  0  0  0  0
   30.5129   35.2630   62.3844 O   0  0  0  0  0  0  0  0  0  0  0  0
   31.0547   35.6566   61.2013 C   0  0  0  0  0  0  0  0  0  0  0  0
   31.0320   36.9951   60.8384 C   0  0  0  0  0  0  0  0  0  0  0  0
   31.5786   37.3928   59.6336 C   0  0  0  0  0  0  0  0  0  0  0  0
   32.1585   36.4586   58.7934 C   0  0  0  0  0  0  0  0  0  0  0  0
   32.8511   36.9625   57.2834 Cl  0  0  0  0  0  0  0  0  0  0  0  0
   32.1873   35.1236   59.1553 C   0  0  0  0  0  0  0  0  0  0  0  0
   31.6366   34.7206   60.3577 C   0  0  0  0  0  0  0  0  0  0  0  0
   31.6732   33.0455   60.8120 Cl  0  0  0  0  0  0  0  0  0  0  0  0
   28.9728   39.3856   64.6605 H   0  0  0  0  0  0  0  0  0  0  0  0
   30.0657   40.0477   65.8997 H   0  0  0  0  0  0  0  0  0  0  0  0
   30.5437   40.0747   64.1852 H   0  0  0  0  0  0  0  0  0  0  0  0
   30.1387   37.5693   65.8809 H   0  0  0  0  0  0  0  0  0  0  0  0
   31.7096   38.2583   65.4057 H   0  0  0  0  0  0  0  0  0  0  0  0
   29.5777   34.1835   66.3340 H   0  0  0  0  0  0  0  0  0  0  0  0
   29.0447   35.7448   65.6657 H   0  0  0  0  0  0  0  0  0  0  0  0
   27.7467   33.8699   64.6916 H   0  0  0  0  0  0  0  0  0  0  0  0
   28.7236   34.6852   63.4468 H   0  0  0  0  0  0  0  0  0  0  0  0
   29.2567   33.1239   64.1153 H   0  0  0  0  0  0  0  0  0  0  0  0
   30.5836   37.7256   61.4955 H   0  0  0  0  0  0  0  0  0  0  0  0
   31.5576   38.4345   59.3493 H   0  0  0  0  0  0  0  0  0  0  0  0
   32.6399   34.3959   58.4980 H   0  0  0  0  0  0  0  0  0  0  0  0
  1  2  1  0  0  0  0
  1 18  1  0  0  0  0
  1 19  1  0  0  0  0
  1 20  1  0  0  0  0
  2  3  1  0  0  0  0
  2 21  1  0  0  0  0
  2 22  1  0  0  0  0
  3  4  1  0  0  0  0
  4  5  2  0  0  0  0
  4  6  1  0  0  0  0
  4  9  1  0  0  0  0
  6  7  1  0  0  0  0
  7  8  1  0  0  0  0
  7 23  1  0  0  0  0
  7 24  1  0  0  0  0
  8 25  1  0  0  0  0
  8 26  1  0  0  0  0
  8 27  1  0  0  0  0
  9 10  1  0  0  0  0
 10 16  2  0  0  0  0
 10 11  1  0  0  0  0
 11 12  2  0  0  0  0
 11 28  1  0  0  0  0
 12 13  1  0  0  0  0
 12 29  1  0  0  0  0
 13 14  1  0  0  0  0
 13 15  2  0  0  0  0
 15 16  1  0  0  0  0
 15 30  1  0  0  0  0
 16 17  1  0  0  0  0
M  END
$$$$
