ZINC000000009654      none
 OpenBabel11202420153D

 43 45  0  0  1  0  0  0  0  0999 V2000
   33.4221   33.6172   57.6197 C   0  0  0  0  0  0  0  0  0  0  0  0
   32.3470   34.5275   57.3793 O   0  0  0  0  0  0  0  0  0  0  0  0
   32.4631   35.7741   57.9101 C   0  0  0  0  0  0  0  0  0  0  0  0
   33.0652   36.7802   57.1740 C   0  0  0  0  0  0  0  0  0  0  0  0
   33.1836   38.0468   57.7122 C   0  0  0  0  0  0  0  0  0  0  0  0
   32.6973   38.3019   58.9830 C   0  0  0  0  0  0  0  0  0  0  0  0
   32.8137   39.5492   59.5116 O   0  0  0  0  0  0  0  0  0  0  0  0
   33.4469   40.5410   58.7009 C   0  0  0  0  0  0  0  0  0  0  0  0
   32.0892   37.2911   59.7245 C   0  0  0  0  0  0  0  0  0  0  0  0
   31.9750   36.0283   59.1900 C   0  0  0  0  0  0  0  0  0  0  0  0
   31.3434   34.8845   59.9396 C   0  0  0  0  0  0  0  0  0  0  0  0
   30.4982   35.4039   61.1007 C   0  0  0  0  0  0  0  0  0  0  0  0
   31.3522   36.3752   61.9242 C   0  0  2  0  0  0  0  0  0  0  0  0
   32.3117   35.9135   62.1574 H   0  0  0  0  0  0  0  0  0  0  0  0
   30.6536   36.7153   63.1662 N   0  0  0  0  0  0  0  0  0  0  0  0
   31.2414   36.4233   64.4020 C   0  0  0  0  0  0  0  0  0  0  0  0
   32.4693   36.9792   64.7361 C   0  0  0  0  0  0  0  0  0  0  0  0
   33.0460   36.6946   65.9583 C   0  0  0  0  0  0  0  0  0  0  0  0
   32.4044   35.8456   66.8475 C   0  0  0  0  0  0  0  0  0  0  0  0
   32.9755   35.5617   68.0487 O   0  0  0  0  0  0  0  0  0  0  0  0
   31.1805   35.2852   66.5125 C   0  0  0  0  0  0  0  0  0  0  0  0
   30.5997   35.5730   65.2928 C   0  0  0  0  0  0  0  0  0  0  0  0
   31.5773   37.6397   61.0977 C   0  0  0  0  0  0  0  0  0  0  0  0
   34.3439   34.0267   57.2069 H   0  0  0  0  0  0  0  0  0  0  0  0
   33.5391   33.4687   58.6932 H   0  0  0  0  0  0  0  0  0  0  0  0
   33.2030   32.6621   57.1426 H   0  0  0  0  0  0  0  0  0  0  0  0
   33.4413   36.5754   56.1826 H   0  0  0  0  0  0  0  0  0  0  0  0
   33.6537   38.8354   57.1435 H   0  0  0  0  0  0  0  0  0  0  0  0
   34.4640   40.2253   58.4687 H   0  0  0  0  0  0  0  0  0  0  0  0
   32.8852   40.6664   57.7752 H   0  0  0  0  0  0  0  0  0  0  0  0
   33.4746   41.4878   59.2402 H   0  0  0  0  0  0  0  0  0  0  0  0
   30.7092   34.3158   59.2596 H   0  0  0  0  0  0  0  0  0  0  0  0
   32.1264   34.2341   60.3294 H   0  0  0  0  0  0  0  0  0  0  0  0
   30.1830   34.5700   61.7278 H   0  0  0  0  0  0  0  0  0  0  0  0
   29.6224   35.9237   60.7125 H   0  0  0  0  0  0  0  0  0  0  0  0
   29.7854   37.1466   63.1317 H   0  0  0  0  0  0  0  0  0  0  0  0
   32.9710   37.6372   64.0421 H   0  0  0  0  0  0  0  0  0  0  0  0
   33.9989   37.1303   66.2201 H   0  0  0  0  0  0  0  0  0  0  0  0
   33.8266   35.9975   68.1923 H   0  0  0  0  0  0  0  0  0  0  0  0
   30.6818   34.6236   67.2052 H   0  0  0  0  0  0  0  0  0  0  0  0
   29.6466   35.1369   65.0322 H   0  0  0  0  0  0  0  0  0  0  0  0
   30.6353   38.1799   61.0036 H   0  0  0  0  0  0  0  0  0  0  0  0
   32.3064   38.2738   61.6021 H   0  0  0  0  0  0  0  0  0  0  0  0
  1  2  1  0  0  0  0
  1 24  1  0  0  0  0
  1 25  1  0  0  0  0
  1 26  1  0  0  0  0
  2  3  1  0  0  0  0
  3 10  2  0  0  0  0
  3  4  1  0  0  0  0
  4  5  2  0  0  0  0
  4 27  1  0  0  0  0
  5  6  1  0  0  0  0
  5 28  1  0  0  0  0
  6  7  1  0  0  0  0
  6  9  2  0  0  0  0
  7  8  1  0  0  0  0
  8 29  1  0  0  0  0
  8 30  1  0  0  0  0
  8 31  1  0  0  0  0
  9 23  1  0  0  0  0
  9 10  1  0  0  0  0
 10 11  1  0  0  0  0
 11 12  1  0  0  0  0
 11 32  1  0  0  0  0
 11 33  1  0  0  0  0
 12 13  1  0  0  0  0
 12 34  1  0  0  0  0
 12 35  1  0  0  0  0
 13 14  1  1  0  0  0
 13 15  1  0  0  0  0
 13 23  1  0  0  0  0
 15 16  1  0  0  0  0
 15 36  1  0  0  0  0
 16 22  2  0  0  0  0
 16 17  1  0  0  0  0
 17 18  2  0  0  0  0
 17 37  1  0  0  0  0
 18 19  1  0  0  0  0
 18 38  1  0  0  0  0
 19 20  1  0  0  0  0
 19 21  2  0  0  0  0
 20 39  1  0  0  0  0
 21 22  1  0  0  0  0
 21 40  1  0  0  0  0
 22 41  1  0  0  0  0
 23 42  1  0  0  0  0
 23 43  1  0  0  0  0
M  END
$$$$
