ZINC000000038333      none
 OpenBabel11202420153D

 36 38  0  0  1  0  0  0  0  0999 V2000
   30.2639   36.4102   61.4885 C   0  0  0  0  0  0  0  0  0  0  0  0
   31.7591   36.1200   61.3435 C   0  0  1  0  0  0  0  0  0  0  0  0
   32.3315   36.9117   61.8270 H   0  0  0  0  0  0  0  0  0  0  0  0
   32.0799   34.7990   61.9940 C   0  0  0  0  0  0  0  0  0  0  0  0
   32.9912   34.1203   61.5710 O   0  0  0  0  0  0  0  0  0  0  0  0
   31.2869   34.3327   63.1428 C   0  0  0  0  0  0  0  0  0  0  0  0
   30.5783   33.1296   63.0657 C   0  0  0  0  0  0  0  0  0  0  0  0
   29.8408   32.6976   64.1477 C   0  0  0  0  0  0  0  0  0  0  0  0
   29.7932   33.4557   65.3045 C   0  0  0  0  0  0  0  0  0  0  0  0
   30.4878   34.6501   65.3870 C   0  0  0  0  0  0  0  0  0  0  0  0
   31.2334   35.0935   64.3152 C   0  0  0  0  0  0  0  0  0  0  0  0
   32.1098   36.0623   59.9222 N   0  0  0  0  0  0  0  0  0  0  0  0
   32.0388   34.8624   59.2743 C   0  0  0  0  0  0  0  0  0  0  0  0
   32.3384   34.7292   57.9721 C   0  0  0  0  0  0  0  0  0  0  0  0
   32.7633   35.9036   57.2083 C   0  0  0  0  0  0  0  0  0  0  0  0
   33.0869   35.8268   55.8531 C   0  0  0  0  0  0  0  0  0  0  0  0
   33.4803   36.9673   55.1862 C   0  0  0  0  0  0  0  0  0  0  0  0
   33.8845   36.8798   53.5002 Cl  0  0  0  0  0  0  0  0  0  0  0  0
   33.5564   38.1872   55.8493 C   0  0  0  0  0  0  0  0  0  0  0  0
   33.2440   38.2849   57.1763 C   0  0  0  0  0  0  0  0  0  0  0  0
   32.8432   37.1472   57.8767 C   0  0  0  0  0  0  0  0  0  0  0  0
   32.4959   37.1942   59.3010 C   0  0  0  0  0  0  0  0  0  0  0  0
   32.5511   38.2451   59.9141 O   0  0  0  0  0  0  0  0  0  0  0  0
   30.0032   36.4532   62.5460 H   0  0  0  0  0  0  0  0  0  0  0  0
   30.0318   37.3657   61.0180 H   0  0  0  0  0  0  0  0  0  0  0  0
   29.6916   35.6185   61.0050 H   0  0  0  0  0  0  0  0  0  0  0  0
   30.6115   32.5385   62.1623 H   0  0  0  0  0  0  0  0  0  0  0  0
   29.2957   31.7669   64.0909 H   0  0  0  0  0  0  0  0  0  0  0  0
   29.2106   33.1141   66.1473 H   0  0  0  0  0  0  0  0  0  0  0  0
   30.4454   35.2364   66.2929 H   0  0  0  0  0  0  0  0  0  0  0  0
   31.7744   36.0260   64.3806 H   0  0  0  0  0  0  0  0  0  0  0  0
   31.7261   33.9895   59.8281 H   0  0  0  0  0  0  0  0  0  0  0  0
   32.2670   33.7642   57.4926 H   0  0  0  0  0  0  0  0  0  0  0  0
   33.0293   34.8828   55.3316 H   0  0  0  0  0  0  0  0  0  0  0  0
   33.8662   39.0693   55.3085 H   0  0  0  0  0  0  0  0  0  0  0  0
   33.3068   39.2383   57.6797 H   0  0  0  0  0  0  0  0  0  0  0  0
  1  2  1  0  0  0  0
  1 24  1  0  0  0  0
  1 25  1  0  0  0  0
  1 26  1  0  0  0  0
  2  3  1  1  0  0  0
  2  4  1  0  0  0  0
  2 12  1  0  0  0  0
  4  5  2  0  0  0  0
  4  6  1  0  0  0  0
  6 11  2  0  0  0  0
  6  7  1  0  0  0  0
  7  8  2  0  0  0  0
  7 27  1  0  0  0  0
  8  9  1  0  0  0  0
  8 28  1  0  0  0  0
  9 10  2  0  0  0  0
  9 29  1  0  0  0  0
 10 11  1  0  0  0  0
 10 30  1  0  0  0  0
 11 31  1  0  0  0  0
 12 22  1  0  0  0  0
 12 13  1  0  0  0  0
 13 14  2  0  0  0  0
 13 32  1  0  0  0  0
 14 15  1  0  0  0  0
 14 33  1  0  0  0  0
 15 21  2  0  0  0  0
 15 16  1  0  0  0  0
 16 17  2  0  0  0  0
 16 34  1  0  0  0  0
 17 18  1  0  0  0  0
 17 19  1  0  0  0  0
 19 20  2  0  0  0  0
 19 35  1  0  0  0  0
 20 21  1  0  0  0  0
 20 36  1  0  0  0  0
 21 22  1  0  0  0  0
 22 23  2  0  0  0  0
M  END
$$$$
