ZINC000000017887      none
 OpenBabel11202420153D

 22 24  0  0  0  0  0  0  0  0999 V2000
   33.6236   38.8485   55.8563 C   0  0  0  0  0  0  0  0  0  0  0  0
   33.5058   39.7995   56.8600 C   0  0  0  0  0  0  0  0  0  0  0  0
   33.1250   39.4353   58.1342 C   0  0  0  0  0  0  0  0  0  0  0  0
   32.8550   38.1031   58.4212 C   0  0  0  0  0  0  0  0  0  0  0  0
   32.4668   37.4596   59.5407 O   0  0  0  0  0  0  0  0  0  0  0  0
   32.3361   36.1369   59.3137 C   0  0  0  0  0  0  0  0  0  0  0  0
   31.9312   35.1412   60.3196 C   0  0  0  0  0  0  0  0  0  0  0  0
   31.8041   33.8465   60.1158 N   0  0  0  0  0  0  0  0  0  0  0  0
   31.4171   33.2573   61.2521 C   0  0  0  0  0  0  0  0  0  0  0  0
   31.3046   34.2039   62.2069 C   0  0  0  0  0  0  0  0  0  0  0  0
   31.6282   35.4009   61.6263 N   0  0  0  0  0  0  0  0  0  0  0  0
   31.6403   36.2682   62.0603 H   0  0  0  0  0  0  0  0  0  0  0  0
   32.6283   35.8624   58.0172 C   0  0  0  0  0  0  0  0  0  0  0  0
   32.9756   37.1435   57.3999 C   0  0  0  0  0  0  0  0  0  0  0  0
   33.3619   37.5321   56.1158 C   0  0  0  0  0  0  0  0  0  0  0  0
   33.9228   39.1505   54.8634 H   0  0  0  0  0  0  0  0  0  0  0  0
   33.7148   40.8361   56.6407 H   0  0  0  0  0  0  0  0  0  0  0  0
   33.0374   40.1840   58.9075 H   0  0  0  0  0  0  0  0  0  0  0  0
   31.2308   32.2017   61.3844 H   0  0  0  0  0  0  0  0  0  0  0  0
   31.0138   34.0471   63.2351 H   0  0  0  0  0  0  0  0  0  0  0  0
   32.6089   34.8948   57.5381 H   0  0  0  0  0  0  0  0  0  0  0  0
   33.4549   36.7958   55.3312 H   0  0  0  0  0  0  0  0  0  0  0  0
  1 15  2  0  0  0  0
  1  2  1  0  0  0  0
  1 16  1  0  0  0  0
  2  3  2  0  0  0  0
  2 17  1  0  0  0  0
  3  4  1  0  0  0  0
  3 18  1  0  0  0  0
  4 14  2  0  0  0  0
  4  5  1  0  0  0  0
  5  6  1  0  0  0  0
  6  7  1  0  0  0  0
  6 13  2  0  0  0  0
  7 11  1  0  0  0  0
  7  8  2  0  0  0  0
  8  9  1  0  0  0  0
  9 10  2  0  0  0  0
  9 19  1  0  0  0  0
 10 11  1  0  0  0  0
 10 20  1  0  0  0  0
 11 12  1  0  0  0  0
 13 14  1  0  0  0  0
 13 21  1  0  0  0  0
 14 15  1  0  0  0  0
 15 22  1  0  0  0  0
M  END
$$$$
