ZINC000000052134      none
 OpenBabel11202420153D

 48 49  0  0  1  0  0  0  0  0999 V2000
   31.1737   40.1601   67.0451 C   0  0  0  0  0  0  0  0  0  0  0  0
   32.2045   39.0495   67.2573 C   0  0  0  0  0  0  0  0  0  0  0  0
   32.6241   39.0173   68.7284 C   0  0  0  0  0  0  0  0  0  0  0  0
   33.4308   39.3181   66.3829 C   0  0  0  0  0  0  0  0  0  0  0  0
   31.6205   37.7711   66.8925 O   0  0  0  0  0  0  0  0  0  0  0  0
   31.1962   37.6331   65.6223 C   0  0  0  0  0  0  0  0  0  0  0  0
   31.3109   38.5556   64.8399 O   0  0  0  0  0  0  0  0  0  0  0  0
   30.6444   36.4716   65.2186 N   0  0  0  0  0  0  0  0  0  0  0  0
   30.4429   35.2722   66.0574 C   0  0  0  0  0  0  0  0  0  0  0  0
   29.2795   34.5054   65.3807 C   0  0  1  0  0  0  0  0  0  0  0  0
   29.3201   33.4426   65.6196 H   0  0  0  0  0  0  0  0  0  0  0  0
   28.0162   35.0626   65.7491 O   0  0  0  0  0  0  0  0  0  0  0  0
   29.5781   34.7494   63.8779 C   0  0  0  0  0  0  0  0  0  0  0  0
   30.1429   36.1856   63.8664 C   0  0  2  0  0  0  0  0  0  0  0  0
   29.3545   36.8918   63.6064 H   0  0  0  0  0  0  0  0  0  0  0  0
   31.2691   36.2855   62.8703 C   0  0  0  0  0  0  0  0  0  0  0  0
   32.2346   35.5667   62.9759 O   0  0  0  0  0  0  0  0  0  0  0  0
   31.2000   37.1730   61.8656 O   0  0  0  0  0  0  0  0  0  0  0  0
   32.3210   37.2138   60.9438 C   0  0  0  0  0  0  0  0  0  0  0  0
   31.8356   37.6365   59.5811 C   0  0  0  0  0  0  0  0  0  0  0  0
   30.8771   38.3722   59.4803 O   0  0  0  0  0  0  0  0  0  0  0  0
   32.5250   37.1564   58.3727 C   0  0  0  0  0  0  0  0  0  0  0  0
   33.0963   38.0689   57.4801 C   0  0  0  0  0  0  0  0  0  0  0  0
   33.7450   37.6110   56.3528 C   0  0  0  0  0  0  0  0  0  0  0  0
   33.8270   36.2524   56.1010 C   0  0  0  0  0  0  0  0  0  0  0  0
   33.2592   35.3434   56.9767 C   0  0  0  0  0  0  0  0  0  0  0  0
   32.6075   35.7855   58.1085 C   0  0  0  0  0  0  0  0  0  0  0  0
   30.3000   39.9687   67.6681 H   0  0  0  0  0  0  0  0  0  0  0  0
   31.6120   41.1198   67.3190 H   0  0  0  0  0  0  0  0  0  0  0  0
   30.8747   40.1829   65.9973 H   0  0  0  0  0  0  0  0  0  0  0  0
   33.3584   38.2262   68.8794 H   0  0  0  0  0  0  0  0  0  0  0  0
   33.0624   39.9771   69.0021 H   0  0  0  0  0  0  0  0  0  0  0  0
   31.7504   38.8261   69.3513 H   0  0  0  0  0  0  0  0  0  0  0  0
   33.1319   39.3409   65.3349 H   0  0  0  0  0  0  0  0  0  0  0  0
   33.8692   40.2777   66.6566 H   0  0  0  0  0  0  0  0  0  0  0  0
   34.1652   38.5268   66.5340 H   0  0  0  0  0  0  0  0  0  0  0  0
   30.1673   35.5621   67.0714 H   0  0  0  0  0  0  0  0  0  0  0  0
   31.3443   34.6593   66.0707 H   0  0  0  0  0  0  0  0  0  0  0  0
   27.7862   34.9348   66.6796 H   0  0  0  0  0  0  0  0  0  0  0  0
   28.6632   34.6901   63.2884 H   0  0  0  0  0  0  0  0  0  0  0  0
   30.3194   34.0406   63.5091 H   0  0  0  0  0  0  0  0  0  0  0  0
   32.7732   36.2243   60.8776 H   0  0  0  0  0  0  0  0  0  0  0  0
   33.0614   37.9284   61.3035 H   0  0  0  0  0  0  0  0  0  0  0  0
   33.0335   39.1292   57.6755 H   0  0  0  0  0  0  0  0  0  0  0  0
   34.1907   38.3140   55.6648 H   0  0  0  0  0  0  0  0  0  0  0  0
   34.3365   35.9000   55.2164 H   0  0  0  0  0  0  0  0  0  0  0  0
   33.3271   34.2849   56.7731 H   0  0  0  0  0  0  0  0  0  0  0  0
   32.1655   35.0749   58.7912 H   0  0  0  0  0  0  0  0  0  0  0  0
  1  2  1  0  0  0  0
  1 28  1  0  0  0  0
  1 29  1  0  0  0  0
  1 30  1  0  0  0  0
  2  3  1  0  0  0  0
  2  4  1  0  0  0  0
  2  5  1  0  0  0  0
  3 31  1  0  0  0  0
  3 32  1  0  0  0  0
  3 33  1  0  0  0  0
  4 34  1  0  0  0  0
  4 35  1  0  0  0  0
  4 36  1  0  0  0  0
  5  6  1  0  0  0  0
  6  7  2  0  0  0  0
  6  8  1  0  0  0  0
  8 14  1  0  0  0  0
  8  9  1  0  0  0  0
  9 10  1  0  0  0  0
  9 37  1  0  0  0  0
  9 38  1  0  0  0  0
 10 11  1  1  0  0  0
 10 12  1  0  0  0  0
 10 13  1  0  0  0  0
 12 39  1  0  0  0  0
 13 14  1  0  0  0  0
 13 40  1  0  0  0  0
 13 41  1  0  0  0  0
 14 15  1  6  0  0  0
 14 16  1  0  0  0  0
 16 17  2  0  0  0  0
 16 18  1  0  0  0  0
 18 19  1  0  0  0  0
 19 20  1  0  0  0  0
 19 42  1  0  0  0  0
 19 43  1  0  0  0  0
 20 21  2  0  0  0  0
 20 22  1  0  0  0  0
 22 27  2  0  0  0  0
 22 23  1  0  0  0  0
 23 24  2  0  0  0  0
 23 44  1  0  0  0  0
 24 25  1  0  0  0  0
 24 45  1  0  0  0  0
 25 26  2  0  0  0  0
 25 46  1  0  0  0  0
 26 27  1  0  0  0  0
 26 47  1  0  0  0  0
 27 48  1  0  0  0  0
M  END
$$$$
