ZINC000000042152      none
 OpenBabel11202420153D

 31 33  0  0  0  0  0  0  0  0999 V2000
   30.5674   38.7503   62.9347 O   0  0  0  0  0  0  0  0  0  0  0  0
   30.1782   37.9877   63.7974 C   0  0  0  0  0  0  0  0  0  0  0  0
   30.3209   36.6574   63.6354 N   0  0  0  0  0  0  0  0  0  0  0  0
   30.9449   36.1304   62.4192 C   0  0  0  0  0  0  0  0  0  0  0  0
   31.0578   34.3331   62.5069 Cl  0  0  0  0  0  0  0  0  0  0  0  0
   32.3185   36.7307   62.2357 C   0  0  0  0  0  0  0  0  0  0  0  0
   33.2554   36.6276   62.9983 O   0  0  0  0  0  0  0  0  0  0  0  0
   32.3092   37.4648   60.9577 C   0  0  0  0  0  0  0  0  0  0  0  0
   33.3148   38.1948   60.3192 C   0  0  0  0  0  0  0  0  0  0  0  0
   33.0657   38.7997   59.1024 C   0  0  0  0  0  0  0  0  0  0  0  0
   31.8200   38.6935   58.5091 C   0  0  0  0  0  0  0  0  0  0  0  0
   30.8097   37.9816   59.1264 C   0  0  0  0  0  0  0  0  0  0  0  0
   31.0401   37.3616   60.3569 C   0  0  0  0  0  0  0  0  0  0  0  0
   30.1471   36.5570   61.2099 C   0  0  0  0  0  0  0  0  0  0  0  0
   28.9906   36.2776   60.9771 O   0  0  0  0  0  0  0  0  0  0  0  0
   29.5483   38.5195   65.0248 C   0  0  0  0  0  0  0  0  0  0  0  0
   28.6255   37.7460   65.7307 C   0  0  0  0  0  0  0  0  0  0  0  0
   28.0447   38.2464   66.8775 C   0  0  0  0  0  0  0  0  0  0  0  0
   28.3674   39.5161   67.3228 C   0  0  0  0  0  0  0  0  0  0  0  0
   29.2778   40.2899   66.6251 C   0  0  0  0  0  0  0  0  0  0  0  0
   29.8696   39.7994   65.4794 C   0  0  0  0  0  0  0  0  0  0  0  0
   30.0103   36.0487   64.3240 H   0  0  0  0  0  0  0  0  0  0  0  0
   34.2898   38.2825   60.7754 H   0  0  0  0  0  0  0  0  0  0  0  0
   33.8480   39.3593   58.6112 H   0  0  0  0  0  0  0  0  0  0  0  0
   31.6363   39.1705   57.5577 H   0  0  0  0  0  0  0  0  0  0  0  0
   29.8403   37.9039   58.6567 H   0  0  0  0  0  0  0  0  0  0  0  0
   28.3693   36.7565   65.3817 H   0  0  0  0  0  0  0  0  0  0  0  0
   27.3332   37.6475   67.4268 H   0  0  0  0  0  0  0  0  0  0  0  0
   27.9065   39.9049   68.2188 H   0  0  0  0  0  0  0  0  0  0  0  0
   29.5255   41.2801   66.9779 H   0  0  0  0  0  0  0  0  0  0  0  0
   30.5794   40.4046   64.9352 H   0  0  0  0  0  0  0  0  0  0  0  0
  1  2  2  0  0  0  0
  2  3  1  0  0  0  0
  2 16  1  0  0  0  0
  3  4  1  0  0  0  0
  3 22  1  0  0  0  0
  4 14  1  0  0  0  0
  4  5  1  0  0  0  0
  4  6  1  0  0  0  0
  6  7  2  0  0  0  0
  6  8  1  0  0  0  0
  8 13  2  0  0  0  0
  8  9  1  0  0  0  0
  9 10  2  0  0  0  0
  9 23  1  0  0  0  0
 10 11  1  0  0  0  0
 10 24  1  0  0  0  0
 11 12  2  0  0  0  0
 11 25  1  0  0  0  0
 12 13  1  0  0  0  0
 12 26  1  0  0  0  0
 13 14  1  0  0  0  0
 14 15  2  0  0  0  0
 16 21  2  0  0  0  0
 16 17  1  0  0  0  0
 17 18  2  0  0  0  0
 17 27  1  0  0  0  0
 18 19  1  0  0  0  0
 18 28  1  0  0  0  0
 19 20  2  0  0  0  0
 19 29  1  0  0  0  0
 20 21  1  0  0  0  0
 20 30  1  0  0  0  0
 21 31  1  0  0  0  0
M  END
$$$$
