ZINC000000037945      none
 OpenBabel11202420153D

 26 27  0  0  0  0  0  0  0  0999 V2000
   33.9451   37.7576   55.4222 C   0  0  0  0  0  0  0  0  0  0  0  0
   33.7005   38.2894   56.7259 O   0  0  0  0  0  0  0  0  0  0  0  0
   33.1071   37.4636   57.6277 C   0  0  0  0  0  0  0  0  0  0  0  0
   32.7626   36.1692   57.2617 C   0  0  0  0  0  0  0  0  0  0  0  0
   32.1639   35.3230   58.1765 C   0  0  0  0  0  0  0  0  0  0  0  0
   31.8946   35.7629   59.4565 C   0  0  0  0  0  0  0  0  0  0  0  0
   32.2322   37.0642   59.8319 C   0  0  0  0  0  0  0  0  0  0  0  0
   31.9448   37.5391   61.2020 C   0  0  0  0  0  0  0  0  0  0  0  0
   32.7732   37.3984   62.0804 O   0  0  0  0  0  0  0  0  0  0  0  0
   30.7643   38.1282   61.4771 N   0  0  0  0  0  0  0  0  0  0  0  0
   30.4923   38.5774   62.7726 C   0  0  0  0  0  0  0  0  0  0  0  0
   31.3180   38.4807   63.8190 N   0  0  0  0  0  0  0  0  0  0  0  0
   30.7525   38.9998   64.8788 C   0  0  0  0  0  0  0  0  0  0  0  0
   29.5345   39.4467   64.5284 N   0  0  0  0  0  0  0  0  0  0  0  0
   28.8866   39.8796   65.1059 H   0  0  0  0  0  0  0  0  0  0  0  0
   29.3869   39.1683   63.1598 N   0  0  0  0  0  0  0  0  0  0  0  0
   32.8415   37.9153   58.9092 C   0  0  0  0  0  0  0  0  0  0  0  0
   34.6005   36.8903   55.5007 H   0  0  0  0  0  0  0  0  0  0  0  0
   33.0000   37.4590   54.9685 H   0  0  0  0  0  0  0  0  0  0  0  0
   34.4212   38.5179   54.8031 H   0  0  0  0  0  0  0  0  0  0  0  0
   32.9670   35.8209   56.2600 H   0  0  0  0  0  0  0  0  0  0  0  0
   31.9024   34.3159   57.8871 H   0  0  0  0  0  0  0  0  0  0  0  0
   31.4232   35.1005   60.1673 H   0  0  0  0  0  0  0  0  0  0  0  0
   30.1031   38.2406   60.7762 H   0  0  0  0  0  0  0  0  0  0  0  0
   31.1891   39.0589   65.8648 H   0  0  0  0  0  0  0  0  0  0  0  0
   33.1047   38.9234   59.1936 H   0  0  0  0  0  0  0  0  0  0  0  0
  1  2  1  0  0  0  0
  1 18  1  0  0  0  0
  1 19  1  0  0  0  0
  1 20  1  0  0  0  0
  2  3  1  0  0  0  0
  3 17  2  0  0  0  0
  3  4  1  0  0  0  0
  4  5  2  0  0  0  0
  4 21  1  0  0  0  0
  5  6  1  0  0  0  0
  5 22  1  0  0  0  0
  6  7  2  0  0  0  0
  6 23  1  0  0  0  0
  7  8  1  0  0  0  0
  7 17  1  0  0  0  0
  8  9  2  0  0  0  0
  8 10  1  0  0  0  0
 10 11  1  0  0  0  0
 10 24  1  0  0  0  0
 11 16  2  0  0  0  0
 11 12  1  0  0  0  0
 12 13  2  0  0  0  0
 13 14  1  0  0  0  0
 13 25  1  0  0  0  0
 14 15  1  0  0  0  0
 14 16  1  0  0  0  0
 17 26  1  0  0  0  0
M  END
$$$$
