ZINC000000048757      none
 OpenBabel11202420153D

 38 42  0  0  0  0  0  0  0  0999 V2000
   30.1301   36.4200   62.4944 C   0  0  0  0  0  0  0  0  0  0  0  0
   31.5838   35.9910   62.2854 C   0  0  0  0  0  0  0  0  0  0  0  0
   31.9134   36.0608   60.8597 N   0  0  0  0  0  0  0  0  0  0  0  0
   32.4128   37.1495   60.2499 C   0  0  0  0  0  0  0  0  0  0  0  0
   32.6603   38.2166   60.7796 O   0  0  0  0  0  0  0  0  0  0  0  0
   32.6087   36.8210   58.8237 C   0  0  0  0  0  0  0  0  0  0  0  0
   33.1015   37.6463   57.8303 C   0  0  0  0  0  0  0  0  0  0  0  0
   33.4022   39.3907   57.9173 S   0  0  0  0  0  0  0  0  0  0  0  0
   33.9843   39.5239   56.2487 C   0  0  0  0  0  0  0  0  0  0  0  0
   34.4380   40.4026   55.3871 N   0  0  0  0  0  0  0  0  0  0  0  0
   34.7143   39.7864   54.2101 C   0  0  0  0  0  0  0  0  0  0  0  0
   35.2081   40.2357   52.9819 C   0  0  0  0  0  0  0  0  0  0  0  0
   35.3840   39.3404   51.9495 C   0  0  0  0  0  0  0  0  0  0  0  0
   35.0748   37.9995   52.1183 C   0  0  0  0  0  0  0  0  0  0  0  0
   34.5850   37.5423   53.3269 C   0  0  0  0  0  0  0  0  0  0  0  0
   34.4040   38.4305   54.3720 C   0  0  0  0  0  0  0  0  0  0  0  0
   33.9353   38.2784   55.6901 N   0  0  0  0  0  0  0  0  0  0  0  0
   33.4893   37.2756   56.4589 C   0  0  0  0  0  0  0  0  0  0  0  0
   33.4094   36.1341   56.0505 O   0  0  0  0  0  0  0  0  0  0  0  0
   32.1575   35.4205   58.6877 C   0  0  0  0  0  0  0  0  0  0  0  0
   32.0975   34.5380   57.6122 C   0  0  0  0  0  0  0  0  0  0  0  0
   31.6228   33.2566   57.8047 C   0  0  0  0  0  0  0  0  0  0  0  0
   31.2141   32.8490   59.0638 C   0  0  0  0  0  0  0  0  0  0  0  0
   31.2754   33.7141   60.1381 C   0  0  0  0  0  0  0  0  0  0  0  0
   31.7504   35.0092   59.9653 C   0  0  0  0  0  0  0  0  0  0  0  0
   29.4713   35.7548   61.9361 H   0  0  0  0  0  0  0  0  0  0  0  0
   29.8849   36.3681   63.5551 H   0  0  0  0  0  0  0  0  0  0  0  0
   29.9986   37.4426   62.1406 H   0  0  0  0  0  0  0  0  0  0  0  0
   31.7153   34.9684   62.6391 H   0  0  0  0  0  0  0  0  0  0  0  0
   32.2427   36.6561   62.8437 H   0  0  0  0  0  0  0  0  0  0  0  0
   35.4512   41.2788   52.8432 H   0  0  0  0  0  0  0  0  0  0  0  0
   35.7658   39.6862   51.0002 H   0  0  0  0  0  0  0  0  0  0  0  0
   35.2171   37.3085   51.3007 H   0  0  0  0  0  0  0  0  0  0  0  0
   34.3444   36.4972   53.4548 H   0  0  0  0  0  0  0  0  0  0  0  0
   32.4168   34.8564   56.6309 H   0  0  0  0  0  0  0  0  0  0  0  0
   31.5697   32.5706   56.9723 H   0  0  0  0  0  0  0  0  0  0  0  0
   30.8434   31.8448   59.2067 H   0  0  0  0  0  0  0  0  0  0  0  0
   30.9539   33.3840   61.1148 H   0  0  0  0  0  0  0  0  0  0  0  0
  1  2  1  0  0  0  0
  1 26  1  0  0  0  0
  1 27  1  0  0  0  0
  1 28  1  0  0  0  0
  2  3  1  0  0  0  0
  2 29  1  0  0  0  0
  2 30  1  0  0  0  0
  3 25  1  0  0  0  0
  3  4  1  0  0  0  0
  4  5  2  0  0  0  0
  4  6  1  0  0  0  0
  6  7  2  0  0  0  0
  6 20  1  0  0  0  0
  7 18  1  0  0  0  0
  7  8  1  0  0  0  0
  8  9  1  0  0  0  0
  9 17  1  0  0  0  0
  9 10  2  0  0  0  0
 10 11  1  0  0  0  0
 11 16  2  0  0  0  0
 11 12  1  0  0  0  0
 12 13  2  0  0  0  0
 12 31  1  0  0  0  0
 13 14  1  0  0  0  0
 13 32  1  0  0  0  0
 14 15  2  0  0  0  0
 14 33  1  0  0  0  0
 15 16  1  0  0  0  0
 15 34  1  0  0  0  0
 16 17  1  0  0  0  0
 17 18  1  0  0  0  0
 18 19  2  0  0  0  0
 20 25  2  0  0  0  0
 20 21  1  0  0  0  0
 21 22  2  0  0  0  0
 21 35  1  0  0  0  0
 22 23  1  0  0  0  0
 22 36  1  0  0  0  0
 23 24  2  0  0  0  0
 23 37  1  0  0  0  0
 24 25  1  0  0  0  0
 24 38  1  0  0  0  0
M  END
$$$$
