ZINC000000021403      none
 OpenBabel11202420153D

 42 45  0  0  0  0  0  0  0  0999 V2000
   29.6823   42.5933   68.9311 Cl  0  0  0  0  0  0  0  0  0  0  0  0
   29.8520   41.3975   67.6839 C   0  0  0  0  0  0  0  0  0  0  0  0
   28.7271   40.8052   67.1375 C   0  0  0  0  0  0  0  0  0  0  0  0
   28.8591   39.8538   66.1451 C   0  0  0  0  0  0  0  0  0  0  0  0
   30.1226   39.4916   65.6959 C   0  0  0  0  0  0  0  0  0  0  0  0
   30.2590   38.5291   64.6919 N   0  0  0  0  0  0  0  0  0  0  0  0
   31.4754   37.7289   64.8913 C   0  0  0  0  0  0  0  0  0  0  0  0
   31.5466   36.6382   63.8201 C   0  0  0  0  0  0  0  0  0  0  0  0
   31.5419   37.2612   62.4891 N   0  0  0  0  0  0  0  0  0  0  0  0
   31.6854   36.2495   61.4336 C   0  0  0  0  0  0  0  0  0  0  0  0
   32.1630   36.9102   60.1662 C   0  0  0  0  0  0  0  0  0  0  0  0
   32.3979   36.2851   58.9918 C   0  0  0  0  0  0  0  0  0  0  0  0
   32.8146   37.2383   58.1028 N   0  0  0  0  0  0  0  0  0  0  0  0
   33.1844   37.1781   56.7904 C   0  0  0  0  0  0  0  0  0  0  0  0
   33.5627   38.2933   56.1312 C   0  0  0  0  0  0  0  0  0  0  0  0
   33.5801   39.5341   56.7894 C   0  0  0  0  0  0  0  0  0  0  0  0
   33.2137   39.6082   58.0973 C   0  0  0  0  0  0  0  0  0  0  0  0
   32.8214   38.4347   58.7719 C   0  0  0  0  0  0  0  0  0  0  0  0
   32.4190   38.2118   60.0152 N   0  0  0  0  0  0  0  0  0  0  0  0
   30.3255   38.0614   62.2897 C   0  0  0  0  0  0  0  0  0  0  0  0
   30.2543   39.1522   63.3608 C   0  0  0  0  0  0  0  0  0  0  0  0
   31.2501   40.0836   66.2502 C   0  0  0  0  0  0  0  0  0  0  0  0
   31.1119   41.0389   67.2378 C   0  0  0  0  0  0  0  0  0  0  0  0
   27.7451   41.0871   67.4875 H   0  0  0  0  0  0  0  0  0  0  0  0
   27.9809   39.3921   65.7188 H   0  0  0  0  0  0  0  0  0  0  0  0
   32.3512   38.3730   64.8132 H   0  0  0  0  0  0  0  0  0  0  0  0
   31.4496   37.2678   65.8786 H   0  0  0  0  0  0  0  0  0  0  0  0
   30.6845   35.9779   63.9155 H   0  0  0  0  0  0  0  0  0  0  0  0
   32.4625   36.0613   63.9482 H   0  0  0  0  0  0  0  0  0  0  0  0
   32.4100   35.4980   61.7469 H   0  0  0  0  0  0  0  0  0  0  0  0
   30.7219   35.7727   61.2540 H   0  0  0  0  0  0  0  0  0  0  0  0
   32.2786   35.2305   58.7918 H   0  0  0  0  0  0  0  0  0  0  0  0
   33.1747   36.2292   56.2748 H   0  0  0  0  0  0  0  0  0  0  0  0
   33.8531   38.2315   55.0928 H   0  0  0  0  0  0  0  0  0  0  0  0
   33.8834   40.4250   56.2596 H   0  0  0  0  0  0  0  0  0  0  0  0
   33.2229   40.5569   58.6134 H   0  0  0  0  0  0  0  0  0  0  0  0
   29.4496   37.4173   62.3678 H   0  0  0  0  0  0  0  0  0  0  0  0
   30.3514   38.5225   61.3024 H   0  0  0  0  0  0  0  0  0  0  0  0
   29.3383   39.7288   63.2326 H   0  0  0  0  0  0  0  0  0  0  0  0
   31.1162   39.8127   63.2655 H   0  0  0  0  0  0  0  0  0  0  0  0
   32.2338   39.8003   65.9059 H   0  0  0  0  0  0  0  0  0  0  0  0
   31.9882   41.5033   67.6656 H   0  0  0  0  0  0  0  0  0  0  0  0
  1  2  1  0  0  0  0
  2 23  2  0  0  0  0
  2  3  1  0  0  0  0
  3  4  2  0  0  0  0
  3 24  1  0  0  0  0
  4  5  1  0  0  0  0
  4 25  1  0  0  0  0
  5  6  1  0  0  0  0
  5 22  2  0  0  0  0
  6 21  1  0  0  0  0
  6  7  1  0  0  0  0
  7  8  1  0  0  0  0
  7 26  1  0  0  0  0
  7 27  1  0  0  0  0
  8  9  1  0  0  0  0
  8 28  1  0  0  0  0
  8 29  1  0  0  0  0
  9 10  1  0  0  0  0
  9 20  1  0  0  0  0
 10 11  1  0  0  0  0
 10 30  1  0  0  0  0
 10 31  1  0  0  0  0
 11 19  1  0  0  0  0
 11 12  2  0  0  0  0
 12 13  1  0  0  0  0
 12 32  1  0  0  0  0
 13 18  1  0  0  0  0
 13 14  1  0  0  0  0
 14 15  2  0  0  0  0
 14 33  1  0  0  0  0
 15 16  1  0  0  0  0
 15 34  1  0  0  0  0
 16 17  2  0  0  0  0
 16 35  1  0  0  0  0
 17 18  1  0  0  0  0
 17 36  1  0  0  0  0
 18 19  2  0  0  0  0
 20 21  1  0  0  0  0
 20 37  1  0  0  0  0
 20 38  1  0  0  0  0
 21 39  1  0  0  0  0
 21 40  1  0  0  0  0
 22 23  1  0  0  0  0
 22 41  1  0  0  0  0
 23 42  1  0  0  0  0
M  END
$$$$
