ZINC000000022042      none
 OpenBabel11202420153D

 21 22  0  0  0  0  0  0  0  0999 V2000
   31.7943   38.8845   60.7603 O   0  0  0  0  0  0  0  0  0  0  0  0
   32.4174   38.9924   59.7259 C   0  0  0  0  0  0  0  0  0  0  0  0
   32.5048   37.9813   58.6000 C   0  0  0  0  0  0  0  0  0  0  0  0
   33.3862   38.6338   57.6163 N   0  0  0  0  0  0  0  0  0  0  0  0
   33.7916   38.1130   56.3809 C   0  0  0  0  0  0  0  0  0  0  0  0
   34.6263   38.8525   55.5544 C   0  0  0  0  0  0  0  0  0  0  0  0
   35.0248   38.3363   54.3365 C   0  0  0  0  0  0  0  0  0  0  0  0
   34.5931   37.0840   53.9392 C   0  0  0  0  0  0  0  0  0  0  0  0
   33.7620   36.3433   54.7591 C   0  0  0  0  0  0  0  0  0  0  0  0
   33.3548   36.8560   55.9775 C   0  0  0  0  0  0  0  0  0  0  0  0
   32.5383   36.1348   56.7763 F   0  0  0  0  0  0  0  0  0  0  0  0
   33.7304   39.8247   58.1386 C   0  0  0  0  0  0  0  0  0  0  0  0
   34.4602   40.6212   57.5815 O   0  0  0  0  0  0  0  0  0  0  0  0
   33.1770   40.0359   59.3382 N   0  0  0  0  0  0  0  0  0  0  0  0
   31.5195   37.7991   58.1707 H   0  0  0  0  0  0  0  0  0  0  0  0
   32.9467   37.0491   58.9519 H   0  0  0  0  0  0  0  0  0  0  0  0
   34.9644   39.8304   55.8635 H   0  0  0  0  0  0  0  0  0  0  0  0
   35.6745   38.9116   53.6937 H   0  0  0  0  0  0  0  0  0  0  0  0
   34.9065   36.6836   52.9864 H   0  0  0  0  0  0  0  0  0  0  0  0
   33.4266   35.3656   54.4459 H   0  0  0  0  0  0  0  0  0  0  0  0
   33.3094   40.8392   59.8656 H   0  0  0  0  0  0  0  0  0  0  0  0
  1  2  2  0  0  0  0
  2 14  1  0  0  0  0
  2  3  1  0  0  0  0
  3  4  1  0  0  0  0
  3 15  1  0  0  0  0
  3 16  1  0  0  0  0
  4  5  1  0  0  0  0
  4 12  1  0  0  0  0
  5 10  2  0  0  0  0
  5  6  1  0  0  0  0
  6  7  2  0  0  0  0
  6 17  1  0  0  0  0
  7  8  1  0  0  0  0
  7 18  1  0  0  0  0
  8  9  2  0  0  0  0
  8 19  1  0  0  0  0
  9 10  1  0  0  0  0
  9 20  1  0  0  0  0
 10 11  1  0  0  0  0
 12 13  2  0  0  0  0
 12 14  1  0  0  0  0
 14 21  1  0  0  0  0
M  END
$$$$
