ZINC000000013169      none
 OpenBabel11202420153D

 35 37  0  0  1  0  0  0  0  0999 V2000
   32.8138   33.8015   61.3475 C   0  0  0  0  0  0  0  0  0  0  0  0
   31.5935   34.4463   60.6875 C   0  0  2  0  0  0  0  0  0  0  0  0
   31.1596   33.7515   59.9685 H   0  0  0  0  0  0  0  0  0  0  0  0
   32.0024   35.6719   59.9968 N   0  0  0  0  0  0  0  0  0  0  0  0
   32.4017   35.6195   58.6725 C   0  0  0  0  0  0  0  0  0  0  0  0
   32.4153   34.4673   58.0294 N   0  0  0  0  0  0  0  0  0  0  0  0
   32.7841   34.3609   56.7597 C   0  0  0  0  0  0  0  0  0  0  0  0
   33.1862   35.4386   56.0330 C   0  0  0  0  0  0  0  0  0  0  0  0
   33.2052   36.7052   56.6491 C   0  0  0  0  0  0  0  0  0  0  0  0
   33.6073   37.8616   55.9663 C   0  0  0  0  0  0  0  0  0  0  0  0
   33.6048   39.0593   56.6166 C   0  0  0  0  0  0  0  0  0  0  0  0
   33.2094   39.1509   57.9488 C   0  0  0  0  0  0  0  0  0  0  0  0
   32.8124   38.0462   58.6417 C   0  0  0  0  0  0  0  0  0  0  0  0
   32.8023   36.7985   58.0051 C   0  0  0  0  0  0  0  0  0  0  0  0
   30.5705   34.7817   61.7422 C   0  0  0  0  0  0  0  0  0  0  0  0
   29.7250   35.8611   61.5667 C   0  0  0  0  0  0  0  0  0  0  0  0
   28.7837   36.1659   62.5320 C   0  0  0  0  0  0  0  0  0  0  0  0
   28.6940   35.3973   63.6770 C   0  0  0  0  0  0  0  0  0  0  0  0
   29.5432   34.3207   63.8553 C   0  0  0  0  0  0  0  0  0  0  0  0
   30.4815   34.0131   62.8880 C   0  0  0  0  0  0  0  0  0  0  0  0
   33.5537   33.5589   60.5848 H   0  0  0  0  0  0  0  0  0  0  0  0
   33.2477   34.4963   62.0665 H   0  0  0  0  0  0  0  0  0  0  0  0
   32.5096   32.8896   61.8615 H   0  0  0  0  0  0  0  0  0  0  0  0
   31.9932   36.5200   60.4674 H   0  0  0  0  0  0  0  0  0  0  0  0
   32.7687   33.3887   56.2896 H   0  0  0  0  0  0  0  0  0  0  0  0
   33.4860   35.3250   55.0017 H   0  0  0  0  0  0  0  0  0  0  0  0
   33.9168   37.8037   54.9332 H   0  0  0  0  0  0  0  0  0  0  0  0
   33.9145   39.9505   56.0911 H   0  0  0  0  0  0  0  0  0  0  0  0
   33.2172   40.1124   58.4406 H   0  0  0  0  0  0  0  0  0  0  0  0
   32.5081   38.1323   59.6743 H   0  0  0  0  0  0  0  0  0  0  0  0
   29.7975   36.4641   60.6736 H   0  0  0  0  0  0  0  0  0  0  0  0
   28.1202   37.0067   62.3929 H   0  0  0  0  0  0  0  0  0  0  0  0
   27.9609   35.6369   64.4331 H   0  0  0  0  0  0  0  0  0  0  0  0
   29.4734   33.7199   64.7500 H   0  0  0  0  0  0  0  0  0  0  0  0
   31.1449   33.1723   63.0270 H   0  0  0  0  0  0  0  0  0  0  0  0
  1  2  1  0  0  0  0
  1 21  1  0  0  0  0
  1 22  1  0  0  0  0
  1 23  1  0  0  0  0
  2  3  1  6  0  0  0
  2  4  1  0  0  0  0
  2 15  1  0  0  0  0
  4  5  1  0  0  0  0
  4 24  1  0  0  0  0
  5 14  2  0  0  0  0
  5  6  1  0  0  0  0
  6  7  2  0  0  0  0
  7  8  1  0  0  0  0
  7 25  1  0  0  0  0
  8  9  2  0  0  0  0
  8 26  1  0  0  0  0
  9 14  1  0  0  0  0
  9 10  1  0  0  0  0
 10 11  2  0  0  0  0
 10 27  1  0  0  0  0
 11 12  1  0  0  0  0
 11 28  1  0  0  0  0
 12 13  2  0  0  0  0
 12 29  1  0  0  0  0
 13 14  1  0  0  0  0
 13 30  1  0  0  0  0
 15 20  2  0  0  0  0
 15 16  1  0  0  0  0
 16 17  2  0  0  0  0
 16 31  1  0  0  0  0
 17 18  1  0  0  0  0
 17 32  1  0  0  0  0
 18 19  2  0  0  0  0
 18 33  1  0  0  0  0
 19 20  1  0  0  0  0
 19 34  1  0  0  0  0
 20 35  1  0  0  0  0
M  END
$$$$
