ZINC000000040945      none
 OpenBabel11202420153D

 33 34  0  0  0  0  0  0  0  0999 V2000
   31.1881   33.1954   62.6468 C   0  0  0  0  0  0  0  0  0  0  0  0
   31.1858   34.4288   63.4128 O   0  0  0  0  0  0  0  0  0  0  0  0
   32.0867   35.3693   63.0618 C   0  0  0  0  0  0  0  0  0  0  0  0
   32.8532   35.1634   62.1401 O   0  0  0  0  0  0  0  0  0  0  0  0
   32.1419   36.6390   63.7906 C   0  0  0  0  0  0  0  0  0  0  0  0
   32.9087   36.9070   64.9062 C   0  0  0  0  0  0  0  0  0  0  0  0
   32.6532   38.2330   65.2678 C   0  0  0  0  0  0  0  0  0  0  0  0
   31.7564   38.7381   64.3868 C   0  0  0  0  0  0  0  0  0  0  0  0
   31.4388   37.7834   63.4874 N   0  0  0  0  0  0  0  0  0  0  0  0
   30.3785   37.9590   62.2275 S   0  0  0  0  0  0  0  0  0  0  0  0
   29.3525   36.9968   62.4294 O   0  0  0  0  0  0  0  0  0  0  0  0
   30.1250   39.3521   62.1079 O   0  0  0  0  0  0  0  0  0  0  0  0
   31.2281   37.4800   60.7602 C   0  0  0  0  0  0  0  0  0  0  0  0
   31.9266   38.4225   60.0282 C   0  0  0  0  0  0  0  0  0  0  0  0
   32.5982   38.0484   58.8805 C   0  0  0  0  0  0  0  0  0  0  0  0
   32.5622   36.7280   58.4563 C   0  0  0  0  0  0  0  0  0  0  0  0
   33.2179   36.3585   57.3247 O   0  0  0  0  0  0  0  0  0  0  0  0
   33.1372   34.9823   56.9482 C   0  0  0  0  0  0  0  0  0  0  0  0
   31.8560   35.7854   59.1894 C   0  0  0  0  0  0  0  0  0  0  0  0
   31.1907   36.1634   60.3395 C   0  0  0  0  0  0  0  0  0  0  0  0
   32.1625   32.7148   62.7347 H   0  0  0  0  0  0  0  0  0  0  0  0
   30.4176   32.5273   63.0314 H   0  0  0  0  0  0  0  0  0  0  0  0
   30.9860   33.4179   61.5991 H   0  0  0  0  0  0  0  0  0  0  0  0
   33.5788   36.2225   65.4050 H   0  0  0  0  0  0  0  0  0  0  0  0
   33.0923   38.7608   66.1015 H   0  0  0  0  0  0  0  0  0  0  0  0
   31.3567   39.7413   64.4041 H   0  0  0  0  0  0  0  0  0  0  0  0
   31.9507   39.4511   60.3565 H   0  0  0  0  0  0  0  0  0  0  0  0
   33.1473   38.7841   58.3115 H   0  0  0  0  0  0  0  0  0  0  0  0
   33.7027   34.8232   56.0300 H   0  0  0  0  0  0  0  0  0  0  0  0
   33.5531   34.3632   57.7432 H   0  0  0  0  0  0  0  0  0  0  0  0
   32.0943   34.7109   56.7844 H   0  0  0  0  0  0  0  0  0  0  0  0
   31.8261   34.7569   58.8610 H   0  0  0  0  0  0  0  0  0  0  0  0
   30.6405   35.4301   60.9103 H   0  0  0  0  0  0  0  0  0  0  0  0
  1  2  1  0  0  0  0
  1 21  1  0  0  0  0
  1 22  1  0  0  0  0
  1 23  1  0  0  0  0
  2  3  1  0  0  0  0
  3  4  2  0  0  0  0
  3  5  1  0  0  0  0
  5  9  1  0  0  0  0
  5  6  2  0  0  0  0
  6  7  1  0  0  0  0
  6 24  1  0  0  0  0
  7  8  2  0  0  0  0
  7 25  1  0  0  0  0
  8  9  1  0  0  0  0
  8 26  1  0  0  0  0
  9 10  1  0  0  0  0
 10 11  2  0  0  0  0
 10 12  2  0  0  0  0
 10 13  1  0  0  0  0
 13 20  2  0  0  0  0
 13 14  1  0  0  0  0
 14 15  2  0  0  0  0
 14 27  1  0  0  0  0
 15 16  1  0  0  0  0
 15 28  1  0  0  0  0
 16 17  1  0  0  0  0
 16 19  2  0  0  0  0
 17 18  1  0  0  0  0
 18 29  1  0  0  0  0
 18 30  1  0  0  0  0
 18 31  1  0  0  0  0
 19 20  1  0  0  0  0
 19 32  1  0  0  0  0
 20 33  1  0  0  0  0
M  END
$$$$
