ZINC000000039406      none
 OpenBabel11202420153D

 18 18  0  0  0  0  0  0  0  0999 V2000
   34.3754   37.6776   54.0155 N   0  0  0  0  0  0  0  0  0  0  0  0
   34.0486   37.8460   55.0903 C   0  0  0  0  0  0  0  0  0  0  0  0
   33.6367   38.0583   56.4452 C   0  0  0  0  0  0  0  0  0  0  0  0
   33.6660   39.3403   56.9928 C   0  0  0  0  0  0  0  0  0  0  0  0
   33.2675   39.5426   58.3036 C   0  0  0  0  0  0  0  0  0  0  0  0
   33.2926   40.8277   58.8473 N   0  0  0  0  0  0  0  0  0  0  0  0
   32.8345   38.4643   59.0830 C   0  0  0  0  0  0  0  0  0  0  0  0
   32.4350   38.6769   60.4033 N   0  0  0  0  0  0  0  0  0  0  0  0
   32.8012   37.1868   58.5496 C   0  0  0  0  0  0  0  0  0  0  0  0
   33.2001   36.9713   57.2309 C   0  0  0  0  0  0  0  0  0  0  0  0
   33.1672   35.6514   56.6767 C   0  0  0  0  0  0  0  0  0  0  0  0
   33.1412   34.6043   56.2370 N   0  0  0  0  0  0  0  0  0  0  0  0
   33.9992   40.1755   56.3946 H   0  0  0  0  0  0  0  0  0  0  0  0
   33.0100   40.9722   59.7639 H   0  0  0  0  0  0  0  0  0  0  0  0
   33.5924   41.5766   58.3085 H   0  0  0  0  0  0  0  0  0  0  0  0
   32.4579   39.5710   60.7789 H   0  0  0  0  0  0  0  0  0  0  0  0
   32.1345   37.9307   60.9452 H   0  0  0  0  0  0  0  0  0  0  0  0
   32.4666   36.3574   59.1548 H   0  0  0  0  0  0  0  0  0  0  0  0
  1  2  3  0  0  0  0
  2  3  1  0  0  0  0
  3 10  2  0  0  0  0
  3  4  1  0  0  0  0
  4  5  2  0  0  0  0
  4 13  1  0  0  0  0
  5  6  1  0  0  0  0
  5  7  1  0  0  0  0
  6 14  1  0  0  0  0
  6 15  1  0  0  0  0
  7  8  1  0  0  0  0
  7  9  2  0  0  0  0
  8 16  1  0  0  0  0
  8 17  1  0  0  0  0
  9 10  1  0  0  0  0
  9 18  1  0  0  0  0
 10 11  1  0  0  0  0
 11 12  3  0  0  0  0
M  END
$$$$
