ZINC000000054931      none
 OpenBabel11202420153D

 16 17  0  0  0  0  0  0  0  0999 V2000
   31.3670   36.8027   60.8002 O   0  0  0  0  0  0  0  0  0  0  0  0
   31.7385   37.9417   60.5804 N   0  0  0  0  0  0  0  0  0  0  0  0
   31.5168   38.8220   61.3925 O   0  0  0  0  0  0  0  0  0  0  0  0
   32.4593   38.2561   59.3261 C   0  0  0  0  0  0  0  0  0  0  0  0
   32.9365   39.5015   58.9464 C   0  0  0  0  0  0  0  0  0  0  0  0
   33.5199   39.3966   57.7736 N   0  0  0  0  0  0  0  0  0  0  0  0
   33.4407   38.0661   57.3470 N   0  0  0  0  0  0  0  0  0  0  0  0
   33.8840   37.4283   56.2242 C   0  0  0  0  0  0  0  0  0  0  0  0
   33.6506   36.1007   56.0842 C   0  0  0  0  0  0  0  0  0  0  0  0
   32.9700   35.4095   57.0972 C   0  0  0  0  0  0  0  0  0  0  0  0
   32.5586   36.0440   58.1695 N   0  0  0  0  0  0  0  0  0  0  0  0
   32.7788   37.3573   58.3170 C   0  0  0  0  0  0  0  0  0  0  0  0
   32.8433   40.4109   59.5215 H   0  0  0  0  0  0  0  0  0  0  0  0
   34.4104   37.9753   55.4561 H   0  0  0  0  0  0  0  0  0  0  0  0
   33.9899   35.5782   55.2020 H   0  0  0  0  0  0  0  0  0  0  0  0
   32.7842   34.3507   56.9944 H   0  0  0  0  0  0  0  0  0  0  0  0
  1  2  2  0  0  0  0
  2  3  2  0  0  0  0
  2  4  1  0  0  0  0
  4 12  2  0  0  0  0
  4  5  1  0  0  0  0
  5  6  2  0  0  0  0
  5 13  1  0  0  0  0
  6  7  1  0  0  0  0
  7 12  1  0  0  0  0
  7  8  1  0  0  0  0
  8  9  2  0  0  0  0
  8 14  1  0  0  0  0
  9 10  1  0  0  0  0
  9 15  1  0  0  0  0
 10 11  2  0  0  0  0
 10 16  1  0  0  0  0
 11 12  1  0  0  0  0
M  END
$$$$
