ZINC000000032378      none
 OpenBabel11202420153D

 32 33  0  0  0  0  0  0  0  0999 V2000
   32.8542   37.4985   65.3501 C   0  0  0  0  0  0  0  0  0  0  0  0
   32.2437   36.8243   64.1486 C   0  0  0  0  0  0  0  0  0  0  0  0
   31.0635   36.9667   63.9078 O   0  0  0  0  0  0  0  0  0  0  0  0
   33.0090   36.0631   63.3416 N   0  0  0  0  0  0  0  0  0  0  0  0
   32.4420   35.4372   62.2260 C   0  0  0  0  0  0  0  0  0  0  0  0
   31.9073   34.1602   62.3419 C   0  0  0  0  0  0  0  0  0  0  0  0
   31.3481   33.5421   61.2404 C   0  0  0  0  0  0  0  0  0  0  0  0
   31.3137   34.1940   60.0221 C   0  0  0  0  0  0  0  0  0  0  0  0
   31.8516   35.4673   59.8991 C   0  0  0  0  0  0  0  0  0  0  0  0
   31.8222   36.1049   58.6992 O   0  0  0  0  0  0  0  0  0  0  0  0
   32.8750   35.9146   57.8793 C   0  0  0  0  0  0  0  0  0  0  0  0
   33.4923   34.8682   57.9157 O   0  0  0  0  0  0  0  0  0  0  0  0
   33.2807   36.9764   56.9436 C   0  0  0  0  0  0  0  0  0  0  0  0
   33.9274   36.8078   55.6337 C   0  0  0  0  0  0  0  0  0  0  0  0
   34.1017   38.0456   55.1465 C   0  0  0  0  0  0  0  0  0  0  0  0
   33.6347   38.9377   56.0340 O   0  0  0  0  0  0  0  0  0  0  0  0
   33.1405   38.3236   57.1130 C   0  0  0  0  0  0  0  0  0  0  0  0
   32.5315   39.0028   58.3126 C   0  0  0  0  0  0  0  0  0  0  0  0
   32.4137   36.0909   61.0024 C   0  0  0  0  0  0  0  0  0  0  0  0
   33.9156   37.2562   65.4024 H   0  0  0  0  0  0  0  0  0  0  0  0
   32.7318   38.5780   65.2623 H   0  0  0  0  0  0  0  0  0  0  0  0
   32.3569   37.1488   66.2549 H   0  0  0  0  0  0  0  0  0  0  0  0
   33.9528   35.9492   63.5341 H   0  0  0  0  0  0  0  0  0  0  0  0
   31.9292   33.6503   63.2936 H   0  0  0  0  0  0  0  0  0  0  0  0
   30.9325   32.5496   61.3324 H   0  0  0  0  0  0  0  0  0  0  0  0
   30.8715   33.7101   59.1639 H   0  0  0  0  0  0  0  0  0  0  0  0
   34.2030   35.8775   55.1594 H   0  0  0  0  0  0  0  0  0  0  0  0
   34.5509   38.2862   54.1943 H   0  0  0  0  0  0  0  0  0  0  0  0
   33.3093   39.2066   59.0486 H   0  0  0  0  0  0  0  0  0  0  0  0
   32.0691   39.9402   58.0035 H   0  0  0  0  0  0  0  0  0  0  0  0
   31.7755   38.3528   58.7533 H   0  0  0  0  0  0  0  0  0  0  0  0
   32.8291   37.0835   60.9095 H   0  0  0  0  0  0  0  0  0  0  0  0
  1  2  1  0  0  0  0
  1 20  1  0  0  0  0
  1 21  1  0  0  0  0
  1 22  1  0  0  0  0
  2  3  2  0  0  0  0
  2  4  1  0  0  0  0
  4  5  1  0  0  0  0
  4 23  1  0  0  0  0
  5 19  2  0  0  0  0
  5  6  1  0  0  0  0
  6  7  2  0  0  0  0
  6 24  1  0  0  0  0
  7  8  1  0  0  0  0
  7 25  1  0  0  0  0
  8  9  2  0  0  0  0
  8 26  1  0  0  0  0
  9 10  1  0  0  0  0
  9 19  1  0  0  0  0
 10 11  1  0  0  0  0
 11 12  2  0  0  0  0
 11 13  1  0  0  0  0
 13 17  2  0  0  0  0
 13 14  1  0  0  0  0
 14 15  2  0  0  0  0
 14 27  1  0  0  0  0
 15 16  1  0  0  0  0
 15 28  1  0  0  0  0
 16 17  1  0  0  0  0
 17 18  1  0  0  0  0
 18 29  1  0  0  0  0
 18 30  1  0  0  0  0
 18 31  1  0  0  0  0
 19 32  1  0  0  0  0
M  END
$$$$
