ZINC000000027774      none
 OpenBabel11202420153D

 27 29  0  0  0  0  0  0  0  0999 V2000
   35.0948   30.6906   53.3652 N   0  0  0  0  0  0  0  0  0  0  0  0
   34.6938   31.7323   54.1988 C   0  0  0  0  0  0  0  0  0  0  0  0
   35.2515   31.8580   55.4691 C   0  0  0  0  0  0  0  0  0  0  0  0
   34.8653   32.8885   56.2957 C   0  0  0  0  0  0  0  0  0  0  0  0
   33.9030   33.8059   55.8652 C   0  0  0  0  0  0  0  0  0  0  0  0
   33.4826   34.9074   56.7509 C   0  0  0  0  0  0  0  0  0  0  0  0
   32.9409   34.7552   57.9346 N   0  0  0  0  0  0  0  0  0  0  0  0
   32.6906   35.9820   58.4608 C   0  0  0  0  0  0  0  0  0  0  0  0
   32.1352   36.4188   59.6659 C   0  0  0  0  0  0  0  0  0  0  0  0
   32.0125   37.7691   59.9119 C   0  0  0  0  0  0  0  0  0  0  0  0
   31.3228   38.3145   61.4086 Cl  0  0  0  0  0  0  0  0  0  0  0  0
   32.4373   38.6958   58.9698 C   0  0  0  0  0  0  0  0  0  0  0  0
   32.9879   38.2778   57.7757 C   0  0  0  0  0  0  0  0  0  0  0  0
   33.1190   36.9236   57.5114 C   0  0  0  0  0  0  0  0  0  0  0  0
   33.6041   36.2178   56.4649 O   0  0  0  0  0  0  0  0  0  0  0  0
   33.3427   33.6788   54.5861 C   0  0  0  0  0  0  0  0  0  0  0  0
   32.4109   34.5693   54.1594 O   0  0  0  0  0  0  0  0  0  0  0  0
   33.7415   32.6430   53.7603 C   0  0  0  0  0  0  0  0  0  0  0  0
   34.7081   30.6018   52.4800 H   0  0  0  0  0  0  0  0  0  0  0  0
   35.7602   30.0539   53.6698 H   0  0  0  0  0  0  0  0  0  0  0  0
   35.9921   31.1472   55.8048 H   0  0  0  0  0  0  0  0  0  0  0  0
   35.3029   32.9857   57.2784 H   0  0  0  0  0  0  0  0  0  0  0  0
   31.8030   35.7012   60.4015 H   0  0  0  0  0  0  0  0  0  0  0  0
   32.3363   39.7518   59.1730 H   0  0  0  0  0  0  0  0  0  0  0  0
   33.3167   39.0050   57.0480 H   0  0  0  0  0  0  0  0  0  0  0  0
   32.0845   34.3988   53.2652 H   0  0  0  0  0  0  0  0  0  0  0  0
   33.3117   32.5420   52.7748 H   0  0  0  0  0  0  0  0  0  0  0  0
  1  2  1  0  0  0  0
  1 19  1  0  0  0  0
  1 20  1  0  0  0  0
  2 18  2  0  0  0  0
  2  3  1  0  0  0  0
  3  4  2  0  0  0  0
  3 21  1  0  0  0  0
  4  5  1  0  0  0  0
  4 22  1  0  0  0  0
  5  6  1  0  0  0  0
  5 16  2  0  0  0  0
  6 15  1  0  0  0  0
  6  7  2  0  0  0  0
  7  8  1  0  0  0  0
  8 14  2  0  0  0  0
  8  9  1  0  0  0  0
  9 10  2  0  0  0  0
  9 23  1  0  0  0  0
 10 11  1  0  0  0  0
 10 12  1  0  0  0  0
 12 13  2  0  0  0  0
 12 24  1  0  0  0  0
 13 14  1  0  0  0  0
 13 25  1  0  0  0  0
 14 15  1  0  0  0  0
 16 17  1  0  0  0  0
 16 18  1  0  0  0  0
 17 26  1  0  0  0  0
 18 27  1  0  0  0  0
M  END
$$$$
