ZINC000000053825      none
 OpenBabel11202420153D

 36 37  0  0  0  0  0  0  0  0999 V2000
   30.6518   37.0954   67.9128 C   0  0  0  0  0  0  0  0  0  0  0  0
   31.8189   37.2945   67.1126 O   0  0  0  0  0  0  0  0  0  0  0  0
   31.8730   36.6348   65.9246 C   0  0  0  0  0  0  0  0  0  0  0  0
   32.9774   36.7837   65.0987 C   0  0  0  0  0  0  0  0  0  0  0  0
   33.0326   36.1148   63.8916 C   0  0  0  0  0  0  0  0  0  0  0  0
   31.9824   35.2928   63.5051 C   0  0  0  0  0  0  0  0  0  0  0  0
   32.0375   34.6147   62.2823 N   0  0  0  0  0  0  0  0  0  0  0  0
   30.8788   34.8877   61.1311 S   0  0  0  0  0  0  0  0  0  0  0  0
   29.7340   35.3705   61.8207 O   0  0  0  0  0  0  0  0  0  0  0  0
   30.8574   33.7341   60.3017 O   0  0  0  0  0  0  0  0  0  0  0  0
   31.4484   36.2153   60.1223 C   0  0  0  0  0  0  0  0  0  0  0  0
   32.2126   35.9617   58.9940 C   0  0  0  0  0  0  0  0  0  0  0  0
   32.5706   34.5501   58.6063 C   0  0  0  0  0  0  0  0  0  0  0  0
   32.6394   37.0373   58.2301 C   0  0  0  0  0  0  0  0  0  0  0  0
   32.2920   38.3180   58.6158 C   0  0  0  0  0  0  0  0  0  0  0  0
   32.7459   39.4935   57.7893 C   0  0  0  0  0  0  0  0  0  0  0  0
   31.5634   38.5233   59.6957 N   0  0  0  0  0  0  0  0  0  0  0  0
   31.1392   37.5243   60.4465 C   0  0  0  0  0  0  0  0  0  0  0  0
   30.1830   37.8563   61.8569 Cl  0  0  0  0  0  0  0  0  0  0  0  0
   30.8748   35.1484   64.3302 C   0  0  0  0  0  0  0  0  0  0  0  0
   30.8236   35.8138   65.5393 C   0  0  0  0  0  0  0  0  0  0  0  0
   29.7712   37.4191   67.3578 H   0  0  0  0  0  0  0  0  0  0  0  0
   30.5570   36.0381   68.1603 H   0  0  0  0  0  0  0  0  0  0  0  0
   30.7369   37.6772   68.8306 H   0  0  0  0  0  0  0  0  0  0  0  0
   33.7940   37.4231   65.3995 H   0  0  0  0  0  0  0  0  0  0  0  0
   33.8923   36.2313   63.2484 H   0  0  0  0  0  0  0  0  0  0  0  0
   32.7544   33.9846   62.1089 H   0  0  0  0  0  0  0  0  0  0  0  0
   31.8266   34.1650   57.9089 H   0  0  0  0  0  0  0  0  0  0  0  0
   33.5520   34.5413   58.1323 H   0  0  0  0  0  0  0  0  0  0  0  0
   32.5919   33.9228   59.4976 H   0  0  0  0  0  0  0  0  0  0  0  0
   33.2361   36.8762   57.3444 H   0  0  0  0  0  0  0  0  0  0  0  0
   33.7113   39.8436   58.1548 H   0  0  0  0  0  0  0  0  0  0  0  0
   32.8406   39.1898   56.7468 H   0  0  0  0  0  0  0  0  0  0  0  0
   32.0142   40.2975   57.8685 H   0  0  0  0  0  0  0  0  0  0  0  0
   30.0553   34.5130   64.0281 H   0  0  0  0  0  0  0  0  0  0  0  0
   29.9640   35.6985   66.1830 H   0  0  0  0  0  0  0  0  0  0  0  0
  1  2  1  0  0  0  0
  1 22  1  0  0  0  0
  1 23  1  0  0  0  0
  1 24  1  0  0  0  0
  2  3  1  0  0  0  0
  3 21  2  0  0  0  0
  3  4  1  0  0  0  0
  4  5  2  0  0  0  0
  4 25  1  0  0  0  0
  5  6  1  0  0  0  0
  5 26  1  0  0  0  0
  6  7  1  0  0  0  0
  6 20  2  0  0  0  0
  7  8  1  0  0  0  0
  7 27  1  0  0  0  0
  8  9  2  0  0  0  0
  8 10  2  0  0  0  0
  8 11  1  0  0  0  0
 11 18  2  0  0  0  0
 11 12  1  0  0  0  0
 12 13  1  0  0  0  0
 12 14  2  0  0  0  0
 13 28  1  0  0  0  0
 13 29  1  0  0  0  0
 13 30  1  0  0  0  0
 14 15  1  0  0  0  0
 14 31  1  0  0  0  0
 15 16  1  0  0  0  0
 15 17  2  0  0  0  0
 16 32  1  0  0  0  0
 16 33  1  0  0  0  0
 16 34  1  0  0  0  0
 17 18  1  0  0  0  0
 18 19  1  0  0  0  0
 20 21  1  0  0  0  0
 20 35  1  0  0  0  0
 21 36  1  0  0  0  0
M  END
$$$$
