ZINC000000056709      none
 OpenBabel11202420153D

 18 18  0  0  0  0  0  0  0  0999 V2000
   32.3387   37.7732   59.8808 N   0  0  0  0  0  0  0  0  0  0  0  0
   32.6826   37.5008   58.8330 C   0  0  0  0  0  0  0  0  0  0  0  0
   33.1162   37.1574   57.5121 C   0  0  0  0  0  0  0  0  0  0  0  0
   33.0916   35.8265   57.0897 C   0  0  0  0  0  0  0  0  0  0  0  0
   33.5061   35.5034   55.8144 C   0  0  0  0  0  0  0  0  0  0  0  0
   33.9555   36.4931   54.9579 C   0  0  0  0  0  0  0  0  0  0  0  0
   34.4118   36.1317   53.5679 C   0  0  0  0  0  0  0  0  0  0  0  0
   34.2884   34.7509   53.3807 F   0  0  0  0  0  0  0  0  0  0  0  0
   33.6209   36.8022   52.6285 F   0  0  0  0  0  0  0  0  0  0  0  0
   35.7495   36.5069   53.4040 F   0  0  0  0  0  0  0  0  0  0  0  0
   33.9874   37.8128   55.3717 C   0  0  0  0  0  0  0  0  0  0  0  0
   33.5708   38.1507   56.6428 C   0  0  0  0  0  0  0  0  0  0  0  0
   33.6052   39.5632   57.0837 N   0  0  0  0  0  0  0  0  0  0  0  0
   33.2367   39.8600   58.2059 O   0  0  0  0  0  0  0  0  0  0  0  0
   34.0021   40.4288   56.3242 O   0  0  0  0  0  0  0  0  0  0  0  0
   32.7449   35.0526   57.7585 H   0  0  0  0  0  0  0  0  0  0  0  0
   33.4841   34.4751   55.4851 H   0  0  0  0  0  0  0  0  0  0  0  0
   34.3390   38.5803   54.6982 H   0  0  0  0  0  0  0  0  0  0  0  0
  1  2  3  0  0  0  0
  2  3  1  0  0  0  0
  3 12  2  0  0  0  0
  3  4  1  0  0  0  0
  4  5  2  0  0  0  0
  4 16  1  0  0  0  0
  5  6  1  0  0  0  0
  5 17  1  0  0  0  0
  6  7  1  0  0  0  0
  6 11  2  0  0  0  0
  7  8  1  0  0  0  0
  7  9  1  0  0  0  0
  7 10  1  0  0  0  0
 11 12  1  0  0  0  0
 11 18  1  0  0  0  0
 12 13  1  0  0  0  0
 13 14  2  0  0  0  0
 13 15  2  0  0  0  0
M  END
$$$$
