ZINC000000036245      none
 OpenBabel11202420153D

 37 40  0  0  0  0  0  0  0  0999 V2000
   31.3819   37.7110   67.2532 N   0  0  0  0  0  0  0  0  0  0  0  0
   30.5261   38.4289   66.4279 C   0  0  0  0  0  0  0  0  0  0  0  0
   29.5292   39.1719   66.8225 N   0  0  0  0  0  0  0  0  0  0  0  0
   28.9121   39.7212   65.6718 O   0  0  0  0  0  0  0  0  0  0  0  0
   29.6224   39.2545   64.5386 N   0  0  0  0  0  0  0  0  0  0  0  0
   30.5915   38.4851   64.9622 C   0  0  0  0  0  0  0  0  0  0  0  0
   31.5800   37.7863   64.1103 C   0  0  0  0  0  0  0  0  0  0  0  0
   32.5591   37.0006   64.5172 N   0  0  0  0  0  0  0  0  0  0  0  0
   33.1978   36.5929   63.4754 N   0  0  0  0  0  0  0  0  0  0  0  0
   32.6584   37.0866   62.4166 N   0  0  0  0  0  0  0  0  0  0  0  0
   31.6574   37.8250   62.7588 N   0  0  0  0  0  0  0  0  0  0  0  0
   30.7753   38.5692   61.8566 C   0  0  0  0  0  0  0  0  0  0  0  0
   31.2066   38.3411   60.4307 C   0  0  0  0  0  0  0  0  0  0  0  0
   30.4376   37.8406   59.6373 O   0  0  0  0  0  0  0  0  0  0  0  0
   32.4466   38.6930   60.0373 N   0  0  0  0  0  0  0  0  0  0  0  0
   32.8462   38.4815   58.7164 C   0  0  0  0  0  0  0  0  0  0  0  0
   33.2328   39.5441   57.9283 C   0  0  0  0  0  0  0  0  0  0  0  0
   33.6340   39.3441   56.6109 C   0  0  0  0  0  0  0  0  0  0  0  0
   33.6549   38.0972   56.0640 C   0  0  0  0  0  0  0  0  0  0  0  0
   33.2678   36.9870   56.8336 C   0  0  0  0  0  0  0  0  0  0  0  0
   33.2798   35.6882   56.2959 C   0  0  0  0  0  0  0  0  0  0  0  0
   32.8989   34.6354   57.0696 C   0  0  0  0  0  0  0  0  0  0  0  0
   32.4962   34.8244   58.3902 C   0  0  0  0  0  0  0  0  0  0  0  0
   32.4721   36.0680   58.9439 C   0  0  0  0  0  0  0  0  0  0  0  0
   32.8582   37.1780   58.1763 C   0  0  0  0  0  0  0  0  0  0  0  0
   32.1008   37.1861   66.8674 H   0  0  0  0  0  0  0  0  0  0  0  0
   31.2607   37.7342   68.2153 H   0  0  0  0  0  0  0  0  0  0  0  0
   30.8327   39.6329   62.0878 H   0  0  0  0  0  0  0  0  0  0  0  0
   29.7492   38.2244   61.9854 H   0  0  0  0  0  0  0  0  0  0  0  0
   33.0615   39.0932   60.6718 H   0  0  0  0  0  0  0  0  0  0  0  0
   33.2250   40.5433   58.3381 H   0  0  0  0  0  0  0  0  0  0  0  0
   33.9334   40.1916   56.0123 H   0  0  0  0  0  0  0  0  0  0  0  0
   33.9728   37.9611   55.0409 H   0  0  0  0  0  0  0  0  0  0  0  0
   33.5893   35.5267   55.2738 H   0  0  0  0  0  0  0  0  0  0  0  0
   32.9088   33.6387   56.6539 H   0  0  0  0  0  0  0  0  0  0  0  0
   32.1984   33.9721   58.9829 H   0  0  0  0  0  0  0  0  0  0  0  0
   32.1580   36.1997   59.9688 H   0  0  0  0  0  0  0  0  0  0  0  0
  1  2  1  0  0  0  0
  1 26  1  0  0  0  0
  1 27  1  0  0  0  0
  2  6  1  0  0  0  0
  2  3  2  0  0  0  0
  3  4  1  0  0  0  0
  4  5  1  0  0  0  0
  5  6  2  0  0  0  0
  6  7  1  0  0  0  0
  7 11  1  0  0  0  0
  7  8  2  0  0  0  0
  8  9  1  0  0  0  0
  9 10  2  0  0  0  0
 10 11  1  0  0  0  0
 11 12  1  0  0  0  0
 12 13  1  0  0  0  0
 12 28  1  0  0  0  0
 12 29  1  0  0  0  0
 13 14  2  0  0  0  0
 13 15  1  0  0  0  0
 15 16  1  0  0  0  0
 15 30  1  0  0  0  0
 16 25  2  0  0  0  0
 16 17  1  0  0  0  0
 17 18  2  0  0  0  0
 17 31  1  0  0  0  0
 18 19  1  0  0  0  0
 18 32  1  0  0  0  0
 19 20  2  0  0  0  0
 19 33  1  0  0  0  0
 20 25  1  0  0  0  0
 20 21  1  0  0  0  0
 21 22  2  0  0  0  0
 21 34  1  0  0  0  0
 22 23  1  0  0  0  0
 22 35  1  0  0  0  0
 23 24  2  0  0  0  0
 23 36  1  0  0  0  0
 24 25  1  0  0  0  0
 24 37  1  0  0  0  0
M  END
$$$$
