ZINC000000026534      none
 OpenBabel11202420153D

 38 40  0  0  1  0  0  0  0  0999 V2000
   30.2355   37.0777   64.7383 C   0  0  0  0  0  0  0  0  0  0  0  0
   30.6317   36.7366   63.3004 C   0  0  1  0  0  0  0  0  0  0  0  0
   29.6103   37.3385   62.3335 C   0  0  0  0  0  0  0  0  0  0  0  0
   30.0065   36.9974   60.8956 C   0  0  0  0  0  0  0  0  0  0  0  0
   31.3920   37.5740   60.5978 C   0  0  2  0  0  0  0  0  0  0  0  0
   31.7714   37.2474   59.2211 N   0  0  0  0  0  0  0  0  0  0  0  0
   32.5780   38.0766   58.5296 C   0  0  0  0  0  0  0  0  0  0  0  0
   32.9911   39.0963   59.0487 O   0  0  0  0  0  0  0  0  0  0  0  0
   32.9589   37.7488   57.1484 C   0  0  0  0  0  0  0  0  0  0  0  0
   33.7624   38.5069   56.3583 C   0  0  0  0  0  0  0  0  0  0  0  0
   33.8618   37.7980   55.0830 C   0  0  0  0  0  0  0  0  0  0  0  0
   34.5248   38.0482   53.8790 C   0  0  0  0  0  0  0  0  0  0  0  0
   34.4108   37.1611   52.8462 C   0  0  0  0  0  0  0  0  0  0  0  0
   33.6409   36.0141   52.9859 C   0  0  0  0  0  0  0  0  0  0  0  0
   32.9791   35.7491   54.1651 C   0  0  0  0  0  0  0  0  0  0  0  0
   33.0801   36.6370   55.2301 C   0  0  0  0  0  0  0  0  0  0  0  0
   32.5625   36.6494   56.4737 O   0  0  0  0  0  0  0  0  0  0  0  0
   32.4135   36.9721   61.5648 C   0  0  0  0  0  0  0  0  0  0  0  0
   32.0172   37.3132   63.0027 C   0  0  0  0  0  0  0  0  0  0  0  0
   29.2484   36.6669   64.9504 H   0  0  0  0  0  0  0  0  0  0  0  0
   30.9632   36.6488   65.4272 H   0  0  0  0  0  0  0  0  0  0  0  0
   30.2125   38.1604   64.8617 H   0  0  0  0  0  0  0  0  0  0  0  0
   30.6547   35.6538   63.1771 H   0  0  0  0  0  0  0  0  0  0  0  0
   29.5873   38.4213   62.4568 H   0  0  0  0  0  0  0  0  0  0  0  0
   28.6231   36.9277   62.5456 H   0  0  0  0  0  0  0  0  0  0  0  0
   29.2787   37.4263   60.2067 H   0  0  0  0  0  0  0  0  0  0  0  0
   30.0293   35.9146   60.7721 H   0  0  0  0  0  0  0  0  0  0  0  0
   31.3690   38.6568   60.7213 H   0  0  0  0  0  0  0  0  0  0  0  0
   31.4420   36.4344   58.8072 H   0  0  0  0  0  0  0  0  0  0  0  0
   34.2327   39.4434   56.6192 H   0  0  0  0  0  0  0  0  0  0  0  0
   35.1248   38.9389   53.7651 H   0  0  0  0  0  0  0  0  0  0  0  0
   34.9229   37.3533   51.9151 H   0  0  0  0  0  0  0  0  0  0  0  0
   33.5635   35.3195   52.1624 H   0  0  0  0  0  0  0  0  0  0  0  0
   32.3836   34.8534   54.2618 H   0  0  0  0  0  0  0  0  0  0  0  0
   32.4364   35.8893   61.4414 H   0  0  0  0  0  0  0  0  0  0  0  0
   33.4006   37.3829   61.3528 H   0  0  0  0  0  0  0  0  0  0  0  0
   31.9943   38.3960   63.1261 H   0  0  0  0  0  0  0  0  0  0  0  0
   32.7450   36.8844   63.6916 H   0  0  0  0  0  0  0  0  0  0  0  0
  1  2  1  0  0  0  0
  1 20  1  0  0  0  0
  1 21  1  0  0  0  0
  1 22  1  0  0  0  0
  2 19  1  0  0  0  0
  2  3  1  0  0  0  0
  2 23  1  6  0  0  0
  3  4  1  0  0  0  0
  3 24  1  0  0  0  0
  3 25  1  0  0  0  0
  4  5  1  0  0  0  0
  4 26  1  0  0  0  0
  4 27  1  0  0  0  0
  5  6  1  0  0  0  0
  5 18  1  0  0  0  0
  5 28  1  1  0  0  0
  6  7  1  0  0  0  0
  6 29  1  0  0  0  0
  7  8  2  0  0  0  0
  7  9  1  0  0  0  0
  9 17  1  0  0  0  0
  9 10  2  0  0  0  0
 10 11  1  0  0  0  0
 10 30  1  0  0  0  0
 11 16  2  0  0  0  0
 11 12  1  0  0  0  0
 12 13  2  0  0  0  0
 12 31  1  0  0  0  0
 13 14  1  0  0  0  0
 13 32  1  0  0  0  0
 14 15  2  0  0  0  0
 14 33  1  0  0  0  0
 15 16  1  0  0  0  0
 15 34  1  0  0  0  0
 16 17  1  0  0  0  0
 18 19  1  0  0  0  0
 18 35  1  0  0  0  0
 18 36  1  0  0  0  0
 19 37  1  0  0  0  0
 19 38  1  0  0  0  0
M  END
$$$$
