ZINC000000022734      none
 OpenBabel11202420153D

 22 23  0  0  0  0  0  0  0  0999 V2000
   31.6976   34.0862   58.8307 C   0  0  0  0  0  0  0  0  0  0  0  0
   31.8989   34.4115   60.2883 C   0  0  0  0  0  0  0  0  0  0  0  0
   32.7320   33.3871   61.4502 S   0  0  0  0  0  0  0  0  0  0  0  0
   32.4412   34.5545   62.7331 C   0  0  0  0  0  0  0  0  0  0  0  0
   31.7718   35.5994   62.2440 C   0  0  0  0  0  0  0  0  0  0  0  0
   31.4750   35.5217   60.8940 C   0  0  0  0  0  0  0  0  0  0  0  0
   30.7242   36.6065   60.1655 C   0  0  0  0  0  0  0  0  0  0  0  0
   31.7026   37.6121   59.6155 C   0  0  0  0  0  0  0  0  0  0  0  0
   32.2811   37.5705   58.4001 C   0  0  0  0  0  0  0  0  0  0  0  0
   33.0891   38.6715   58.3082 N   0  0  0  0  0  0  0  0  0  0  0  0
   33.6400   38.9194   57.5493 H   0  0  0  0  0  0  0  0  0  0  0  0
   32.9762   39.3481   59.4715 C   0  0  0  0  0  0  0  0  0  0  0  0
   32.1453   38.7087   60.2484 N   0  0  0  0  0  0  0  0  0  0  0  0
   32.5382   34.4708   58.2531 H   0  0  0  0  0  0  0  0  0  0  0  0
   31.6345   33.0053   58.7049 H   0  0  0  0  0  0  0  0  0  0  0  0
   30.7744   34.5473   58.4796 H   0  0  0  0  0  0  0  0  0  0  0  0
   32.7570   34.4427   63.7598 H   0  0  0  0  0  0  0  0  0  0  0  0
   31.4835   36.4422   62.8546 H   0  0  0  0  0  0  0  0  0  0  0  0
   30.0423   37.1030   60.8559 H   0  0  0  0  0  0  0  0  0  0  0  0
   30.1555   36.1672   59.3461 H   0  0  0  0  0  0  0  0  0  0  0  0
   32.1353   36.8139   57.6433 H   0  0  0  0  0  0  0  0  0  0  0  0
   33.4887   40.2663   59.7179 H   0  0  0  0  0  0  0  0  0  0  0  0
  1  2  1  0  0  0  0
  1 14  1  0  0  0  0
  1 15  1  0  0  0  0
  1 16  1  0  0  0  0
  2  6  2  0  0  0  0
  2  3  1  0  0  0  0
  3  4  1  0  0  0  0
  4  5  2  0  0  0  0
  4 17  1  0  0  0  0
  5  6  1  0  0  0  0
  5 18  1  0  0  0  0
  6  7  1  0  0  0  0
  7  8  1  0  0  0  0
  7 19  1  0  0  0  0
  7 20  1  0  0  0  0
  8 13  1  0  0  0  0
  8  9  2  0  0  0  0
  9 10  1  0  0  0  0
  9 21  1  0  0  0  0
 10 11  1  0  0  0  0
 10 12  1  0  0  0  0
 12 13  2  0  0  0  0
 12 22  1  0  0  0  0
M  END
$$$$
