ZINC000000030112      none
 OpenBabel11202420163D

 28 28  0  0  0  0  0  0  0  0999 V2000
   30.2959   37.7255   68.0427 C   0  0  0  0  0  0  0  0  0  0  0  0
   29.1316   37.5518   67.0655 C   0  0  0  0  0  0  0  0  0  0  0  0
   29.6299   37.6445   65.6910 N   0  0  0  0  0  0  0  0  0  0  0  0
   29.6811   38.9441   65.0165 C   0  0  0  0  0  0  0  0  0  0  0  0
   31.0368   39.6025   65.2805 C   0  0  0  0  0  0  0  0  0  0  0  0
   30.0410   36.5343   65.0468 C   0  0  0  0  0  0  0  0  0  0  0  0
   29.9986   35.4561   65.6064 O   0  0  0  0  0  0  0  0  0  0  0  0
   30.5435   36.6279   63.6604 C   0  0  0  0  0  0  0  0  0  0  0  0
   29.6623   36.5004   62.5850 C   0  0  0  0  0  0  0  0  0  0  0  0
   30.1382   36.5892   61.2925 C   0  0  0  0  0  0  0  0  0  0  0  0
   29.0443   36.4303   59.9541 Cl  0  0  0  0  0  0  0  0  0  0  0  0
   31.4861   36.8097   61.0610 C   0  0  0  0  0  0  0  0  0  0  0  0
   32.3653   36.9318   62.1209 C   0  0  0  0  0  0  0  0  0  0  0  0
   31.9023   36.8449   63.4197 C   0  0  0  0  0  0  0  0  0  0  0  0
   33.0068   37.0044   64.7495 Cl  0  0  0  0  0  0  0  0  0  0  0  0
   31.0347   36.9428   67.8706 H   0  0  0  0  0  0  0  0  0  0  0  0
   30.7573   38.7009   67.8886 H   0  0  0  0  0  0  0  0  0  0  0  0
   29.9253   37.6565   69.0654 H   0  0  0  0  0  0  0  0  0  0  0  0
   28.3929   38.3344   67.2377 H   0  0  0  0  0  0  0  0  0  0  0  0
   28.6703   36.5764   67.2197 H   0  0  0  0  0  0  0  0  0  0  0  0
   29.5489   38.8023   63.9439 H   0  0  0  0  0  0  0  0  0  0  0  0
   28.8859   39.5837   65.3992 H   0  0  0  0  0  0  0  0  0  0  0  0
   31.0751   40.5693   64.7788 H   0  0  0  0  0  0  0  0  0  0  0  0
   31.1691   39.7444   66.3532 H   0  0  0  0  0  0  0  0  0  0  0  0
   31.8321   38.9628   64.8979 H   0  0  0  0  0  0  0  0  0  0  0  0
   28.6106   36.3322   62.7641 H   0  0  0  0  0  0  0  0  0  0  0  0
   31.8525   36.8826   60.0476 H   0  0  0  0  0  0  0  0  0  0  0  0
   33.4155   37.0999   61.9333 H   0  0  0  0  0  0  0  0  0  0  0  0
  1  2  1  0  0  0  0
  1 16  1  0  0  0  0
  1 17  1  0  0  0  0
  1 18  1  0  0  0  0
  2  3  1  0  0  0  0
  2 19  1  0  0  0  0
  2 20  1  0  0  0  0
  3  4  1  0  0  0  0
  3  6  1  0  0  0  0
  4  5  1  0  0  0  0
  4 21  1  0  0  0  0
  4 22  1  0  0  0  0
  5 23  1  0  0  0  0
  5 24  1  0  0  0  0
  5 25  1  0  0  0  0
  6  7  2  0  0  0  0
  6  8  1  0  0  0  0
  8 14  2  0  0  0  0
  8  9  1  0  0  0  0
  9 10  2  0  0  0  0
  9 26  1  0  0  0  0
 10 11  1  0  0  0  0
 10 12  1  0  0  0  0
 12 13  2  0  0  0  0
 12 27  1  0  0  0  0
 13 14  1  0  0  0  0
 13 28  1  0  0  0  0
 14 15  1  0  0  0  0
M  END
$$$$
