ZINC000000006296      none
 OpenBabel11202420153D

 25 26  0  0  0  0  0  0  0  0999 V2000
   31.4428   36.3772   60.5194 O   0  0  0  0  0  0  0  0  0  0  0  0
   31.9449   36.0562   59.4596 C   0  0  0  0  0  0  0  0  0  0  0  0
   32.5044   37.0707   58.5439 C   0  0  0  0  0  0  0  0  0  0  0  0
   32.6709   38.3958   58.9346 C   0  0  0  0  0  0  0  0  0  0  0  0
   33.2040   39.3058   58.0446 C   0  0  0  0  0  0  0  0  0  0  0  0
   33.5681   38.9060   56.7690 C   0  0  0  0  0  0  0  0  0  0  0  0
   33.3975   37.5948   56.3675 C   0  0  0  0  0  0  0  0  0  0  0  0
   32.8598   36.6703   57.2464 C   0  0  0  0  0  0  0  0  0  0  0  0
   32.6473   35.3840   56.8753 O   0  0  0  0  0  0  0  0  0  0  0  0
   32.7556   34.3795   57.8828 C   0  0  0  0  0  0  0  0  0  0  0  0
   32.0090   34.7591   59.0830 N   0  0  0  0  0  0  0  0  0  0  0  0
   31.3297   33.7325   59.8771 C   0  0  0  0  0  0  0  0  0  0  0  0
   32.2839   33.2028   60.9495 C   0  0  0  0  0  0  0  0  0  0  0  0
   32.6853   34.2768   61.8025 O   0  0  0  0  0  0  0  0  0  0  0  0
   32.3853   38.7098   59.9277 H   0  0  0  0  0  0  0  0  0  0  0  0
   33.3382   40.3348   58.3440 H   0  0  0  0  0  0  0  0  0  0  0  0
   33.9894   39.6254   56.0824 H   0  0  0  0  0  0  0  0  0  0  0  0
   33.6788   37.2931   55.3694 H   0  0  0  0  0  0  0  0  0  0  0  0
   33.8056   34.2440   58.1421 H   0  0  0  0  0  0  0  0  0  0  0  0
   32.3584   33.4409   57.4959 H   0  0  0  0  0  0  0  0  0  0  0  0
   30.4507   34.1652   60.3546 H   0  0  0  0  0  0  0  0  0  0  0  0
   31.0237   32.9132   59.2265 H   0  0  0  0  0  0  0  0  0  0  0  0
   31.7785   32.4389   61.5403 H   0  0  0  0  0  0  0  0  0  0  0  0
   33.1631   32.7702   60.4719 H   0  0  0  0  0  0  0  0  0  0  0  0
   31.9523   34.7096   62.2611 H   0  0  0  0  0  0  0  0  0  0  0  0
  1  2  2  0  0  0  0
  2 11  1  0  0  0  0
  2  3  1  0  0  0  0
  3  8  2  0  0  0  0
  3  4  1  0  0  0  0
  4  5  2  0  0  0  0
  4 15  1  0  0  0  0
  5  6  1  0  0  0  0
  5 16  1  0  0  0  0
  6  7  2  0  0  0  0
  6 17  1  0  0  0  0
  7  8  1  0  0  0  0
  7 18  1  0  0  0  0
  8  9  1  0  0  0  0
  9 10  1  0  0  0  0
 10 11  1  0  0  0  0
 10 19  1  0  0  0  0
 10 20  1  0  0  0  0
 11 12  1  0  0  0  0
 12 13  1  0  0  0  0
 12 21  1  0  0  0  0
 12 22  1  0  0  0  0
 13 14  1  0  0  0  0
 13 23  1  0  0  0  0
 13 24  1  0  0  0  0
 14 25  1  0  0  0  0
M  END
$$$$
