ZINC000000027947      none
 OpenBabel11202420153D

 31 33  0  0  1  0  0  0  0  0999 V2000
   30.8969   33.5128   62.8025 C   0  0  0  0  0  0  0  0  0  0  0  0
   30.6283   34.9328   62.5626 N   0  0  0  0  0  0  0  0  0  0  0  0
   29.5231   35.4587   63.0933 C   0  0  0  0  0  0  0  0  0  0  0  0
   28.8122   34.7436   63.7671 O   0  0  0  0  0  0  0  0  0  0  0  0
   29.1278   36.9056   62.9150 C   0  0  0  0  0  0  0  0  0  0  0  0
   30.3259   37.7127   62.4015 C   0  0  2  0  0  0  0  0  0  0  0  0
   30.0075   38.7067   62.0877 H   0  0  0  0  0  0  0  0  0  0  0  0
   30.9288   36.9565   61.2101 C   0  0  0  0  0  0  0  0  0  0  0  0
   31.5857   35.6838   61.7590 C   0  0  2  0  0  0  0  0  0  0  0  0
   32.0749   34.8158   60.5979 C   0  0  0  0  0  0  0  0  0  0  0  0
   32.6990   36.0760   62.5687 O   0  0  0  0  0  0  0  0  0  0  0  0
   32.4710   37.0106   63.5290 C   0  0  0  0  0  0  0  0  0  0  0  0
   33.3945   37.1429   64.5609 C   0  0  0  0  0  0  0  0  0  0  0  0
   33.1987   38.0839   65.5509 C   0  0  0  0  0  0  0  0  0  0  0  0
   32.0816   38.8982   65.5180 C   0  0  0  0  0  0  0  0  0  0  0  0
   31.1594   38.7648   64.4987 C   0  0  0  0  0  0  0  0  0  0  0  0
   31.3528   37.8253   63.4993 C   0  0  0  0  0  0  0  0  0  0  0  0
   31.5630   33.4086   63.6591 H   0  0  0  0  0  0  0  0  0  0  0  0
   29.9596   32.9949   63.0061 H   0  0  0  0  0  0  0  0  0  0  0  0
   31.3681   33.0782   61.9210 H   0  0  0  0  0  0  0  0  0  0  0  0
   28.7904   37.3210   63.8646 H   0  0  0  0  0  0  0  0  0  0  0  0
   28.3171   36.9568   62.1882 H   0  0  0  0  0  0  0  0  0  0  0  0
   30.1425   36.6920   60.5030 H   0  0  0  0  0  0  0  0  0  0  0  0
   31.6766   37.5776   60.7170 H   0  0  0  0  0  0  0  0  0  0  0  0
   32.7105   35.4108   59.9421 H   0  0  0  0  0  0  0  0  0  0  0  0
   32.6447   33.9730   60.9892 H   0  0  0  0  0  0  0  0  0  0  0  0
   31.2181   34.4452   60.0352 H   0  0  0  0  0  0  0  0  0  0  0  0
   34.2673   36.5075   64.5871 H   0  0  0  0  0  0  0  0  0  0  0  0
   33.9175   38.1844   66.3507 H   0  0  0  0  0  0  0  0  0  0  0  0
   31.9280   39.6358   66.2919 H   0  0  0  0  0  0  0  0  0  0  0  0
   30.2855   39.3990   64.4782 H   0  0  0  0  0  0  0  0  0  0  0  0
  1  2  1  0  0  0  0
  1 18  1  0  0  0  0
  1 19  1  0  0  0  0
  1 20  1  0  0  0  0
  2  9  1  0  0  0  0
  2  3  1  0  0  0  0
  3  4  2  0  0  0  0
  3  5  1  0  0  0  0
  5  6  1  0  0  0  0
  5 21  1  0  0  0  0
  5 22  1  0  0  0  0
  6  7  1  6  0  0  0
  6 17  1  0  0  0  0
  6  8  1  0  0  0  0
  8  9  1  0  0  0  0
  8 23  1  0  0  0  0
  8 24  1  0  0  0  0
  9 10  1  6  0  0  0
  9 11  1  0  0  0  0
 10 25  1  0  0  0  0
 10 26  1  0  0  0  0
 10 27  1  0  0  0  0
 11 12  1  0  0  0  0
 12 17  2  0  0  0  0
 12 13  1  0  0  0  0
 13 14  2  0  0  0  0
 13 28  1  0  0  0  0
 14 15  1  0  0  0  0
 14 29  1  0  0  0  0
 15 16  2  0  0  0  0
 15 30  1  0  0  0  0
 16 17  1  0  0  0  0
 16 31  1  0  0  0  0
M  END
$$$$
