ZINC000000052690      none
 OpenBabel11202420153D

 28 30  0  0  0  0  0  0  0  0999 V2000
   31.3714   37.9142   67.4332 O   0  0  0  0  0  0  0  0  0  0  0  0
   30.9292   38.6644   66.5811 N   0  0  0  0  0  0  0  0  0  0  0  0
   30.2657   39.6321   66.9069 O   0  0  0  0  0  0  0  0  0  0  0  0
   31.1978   38.3989   65.1499 C   0  0  0  0  0  0  0  0  0  0  0  0
   30.6944   39.2521   64.1847 C   0  0  0  0  0  0  0  0  0  0  0  0
   30.9413   39.0101   62.8489 C   0  0  0  0  0  0  0  0  0  0  0  0
   31.7007   37.9022   62.4727 C   0  0  0  0  0  0  0  0  0  0  0  0
   31.9693   37.6368   61.0415 C   0  0  0  0  0  0  0  0  0  0  0  0
   32.1347   36.4202   60.6276 N   0  0  0  0  0  0  0  0  0  0  0  0
   32.3786   36.0961   59.2797 O   0  0  0  0  0  0  0  0  0  0  0  0
   32.7733   37.1118   58.4720 C   0  0  0  0  0  0  0  0  0  0  0  0
   33.3343   36.8402   57.2350 C   0  0  0  0  0  0  0  0  0  0  0  0
   33.7297   37.8803   56.4106 C   0  0  0  0  0  0  0  0  0  0  0  0
   34.4324   37.5352   54.8611 Cl  0  0  0  0  0  0  0  0  0  0  0  0
   33.5679   39.1923   56.8158 C   0  0  0  0  0  0  0  0  0  0  0  0
   33.0100   39.4716   58.0522 C   0  0  0  0  0  0  0  0  0  0  0  0
   32.6156   38.4354   58.8776 C   0  0  0  0  0  0  0  0  0  0  0  0
   32.0501   38.6946   60.1401 N   0  0  0  0  0  0  0  0  0  0  0  0
   32.2010   37.0420   63.4503 C   0  0  0  0  0  0  0  0  0  0  0  0
   31.9516   37.2979   64.7831 C   0  0  0  0  0  0  0  0  0  0  0  0
   30.1066   40.1096   64.4774 H   0  0  0  0  0  0  0  0  0  0  0  0
   30.5478   39.6773   62.0964 H   0  0  0  0  0  0  0  0  0  0  0  0
   33.4631   35.8173   56.9134 H   0  0  0  0  0  0  0  0  0  0  0  0
   33.8764   39.9994   56.1678 H   0  0  0  0  0  0  0  0  0  0  0  0
   32.8829   40.4958   58.3702 H   0  0  0  0  0  0  0  0  0  0  0  0
   31.7282   39.5793   60.3740 H   0  0  0  0  0  0  0  0  0  0  0  0
   32.7855   36.1801   63.1650 H   0  0  0  0  0  0  0  0  0  0  0  0
   32.3419   36.6350   65.5412 H   0  0  0  0  0  0  0  0  0  0  0  0
  1  2  2  0  0  0  0
  2  3  2  0  0  0  0
  2  4  1  0  0  0  0
  4 20  2  0  0  0  0
  4  5  1  0  0  0  0
  5  6  2  0  0  0  0
  5 21  1  0  0  0  0
  6  7  1  0  0  0  0
  6 22  1  0  0  0  0
  7  8  1  0  0  0  0
  7 19  2  0  0  0  0
  8 18  1  0  0  0  0
  8  9  2  0  0  0  0
  9 10  1  0  0  0  0
 10 11  1  0  0  0  0
 11 17  2  0  0  0  0
 11 12  1  0  0  0  0
 12 13  2  0  0  0  0
 12 23  1  0  0  0  0
 13 14  1  0  0  0  0
 13 15  1  0  0  0  0
 15 16  2  0  0  0  0
 15 24  1  0  0  0  0
 16 17  1  0  0  0  0
 16 25  1  0  0  0  0
 17 18  1  0  0  0  0
 18 26  1  0  0  0  0
 19 20  1  0  0  0  0
 19 27  1  0  0  0  0
 20 28  1  0  0  0  0
M  END
$$$$
