ZINC000000001310      none
 OpenBabel11202420153D

 30 31  0  0  0  0  0  0  0  0999 V2000
   30.7591   38.3241   66.5230 N   0  0  0  0  0  0  0  0  0  0  0  0
   31.1203   38.1649   65.1896 C   0  0  0  0  0  0  0  0  0  0  0  0
   31.9343   37.1002   64.8129 C   0  0  0  0  0  0  0  0  0  0  0  0
   32.2939   36.9400   63.4943 C   0  0  0  0  0  0  0  0  0  0  0  0
   31.8406   37.8478   62.5325 C   0  0  0  0  0  0  0  0  0  0  0  0
   32.2245   37.6794   61.1184 C   0  0  0  0  0  0  0  0  0  0  0  0
   32.4836   36.5726   60.6862 O   0  0  0  0  0  0  0  0  0  0  0  0
   32.2881   38.7522   60.3050 N   0  0  0  0  0  0  0  0  0  0  0  0
   32.6526   38.5923   58.9619 C   0  0  0  0  0  0  0  0  0  0  0  0
   32.3562   37.4121   58.2966 C   0  0  0  0  0  0  0  0  0  0  0  0
   32.7163   37.2567   56.9711 C   0  0  0  0  0  0  0  0  0  0  0  0
   33.3724   38.2752   56.3045 C   0  0  0  0  0  0  0  0  0  0  0  0
   33.6719   39.4549   56.9596 C   0  0  0  0  0  0  0  0  0  0  0  0
   33.3143   39.6198   58.2896 C   0  0  0  0  0  0  0  0  0  0  0  0
   33.6159   40.8130   58.9546 N   0  0  0  0  0  0  0  0  0  0  0  0
   31.0272   38.9186   62.9148 C   0  0  0  0  0  0  0  0  0  0  0  0
   30.6676   39.0707   64.2343 C   0  0  0  0  0  0  0  0  0  0  0  0
   31.0743   37.6937   67.1895 H   0  0  0  0  0  0  0  0  0  0  0  0
   30.1920   39.0656   66.7865 H   0  0  0  0  0  0  0  0  0  0  0  0
   32.2842   36.3992   65.5564 H   0  0  0  0  0  0  0  0  0  0  0  0
   32.9259   36.1142   63.2028 H   0  0  0  0  0  0  0  0  0  0  0  0
   32.0814   39.6350   60.6497 H   0  0  0  0  0  0  0  0  0  0  0  0
   31.8442   36.6144   58.8142 H   0  0  0  0  0  0  0  0  0  0  0  0
   32.4887   36.3351   56.4559 H   0  0  0  0  0  0  0  0  0  0  0  0
   33.6515   38.1485   55.2689 H   0  0  0  0  0  0  0  0  0  0  0  0
   34.1841   40.2486   56.4357 H   0  0  0  0  0  0  0  0  0  0  0  0
   33.3649   40.9268   59.8846 H   0  0  0  0  0  0  0  0  0  0  0  0
   34.0761   41.5266   58.4857 H   0  0  0  0  0  0  0  0  0  0  0  0
   30.6787   39.6239   62.1748 H   0  0  0  0  0  0  0  0  0  0  0  0
   30.0365   39.8958   64.5298 H   0  0  0  0  0  0  0  0  0  0  0  0
  1  2  1  0  0  0  0
  1 18  1  0  0  0  0
  1 19  1  0  0  0  0
  2 17  2  0  0  0  0
  2  3  1  0  0  0  0
  3  4  2  0  0  0  0
  3 20  1  0  0  0  0
  4  5  1  0  0  0  0
  4 21  1  0  0  0  0
  5  6  1  0  0  0  0
  5 16  2  0  0  0  0
  6  7  2  0  0  0  0
  6  8  1  0  0  0  0
  8  9  1  0  0  0  0
  8 22  1  0  0  0  0
  9 14  2  0  0  0  0
  9 10  1  0  0  0  0
 10 11  2  0  0  0  0
 10 23  1  0  0  0  0
 11 12  1  0  0  0  0
 11 24  1  0  0  0  0
 12 13  2  0  0  0  0
 12 25  1  0  0  0  0
 13 14  1  0  0  0  0
 13 26  1  0  0  0  0
 14 15  1  0  0  0  0
 15 27  1  0  0  0  0
 15 28  1  0  0  0  0
 16 17  1  0  0  0  0
 16 29  1  0  0  0  0
 17 30  1  0  0  0  0
M  END
$$$$
