ZINC000000055300      none
 OpenBabel11202420153D

 27 29  0  0  0  0  0  0  0  0999 V2000
   31.4512   38.8371   59.1719 O   0  0  0  0  0  0  0  0  0  0  0  0
   31.9733   38.1010   58.3544 C   0  0  0  0  0  0  0  0  0  0  0  0
   32.4969   38.4455   57.1582 O   0  0  0  0  0  0  0  0  0  0  0  0
   32.9696   37.3355   56.5590 C   0  0  0  0  0  0  0  0  0  0  0  0
   33.6115   37.3172   55.2303 C   0  0  0  0  0  0  0  0  0  0  0  0
   33.5073   36.1860   54.4167 C   0  0  0  0  0  0  0  0  0  0  0  0
   34.1092   36.1752   53.1749 C   0  0  0  0  0  0  0  0  0  0  0  0
   34.0096   35.0823   52.3867 F   0  0  0  0  0  0  0  0  0  0  0  0
   34.8178   37.2854   52.7342 C   0  0  0  0  0  0  0  0  0  0  0  0
   35.4051   37.2694   51.5176 F   0  0  0  0  0  0  0  0  0  0  0  0
   34.9239   38.4090   53.5368 C   0  0  0  0  0  0  0  0  0  0  0  0
   34.3211   38.4335   54.7785 C   0  0  0  0  0  0  0  0  0  0  0  0
   34.4497   39.8458   55.7799 Cl  0  0  0  0  0  0  0  0  0  0  0  0
   32.7887   36.2785   57.3026 N   0  0  0  0  0  0  0  0  0  0  0  0
   32.1705   36.6487   58.4605 C   0  0  0  0  0  0  0  0  0  0  0  0
   31.8007   35.8264   59.5142 C   0  0  0  0  0  0  0  0  0  0  0  0
   31.3278   36.3899   60.7140 C   0  0  0  0  0  0  0  0  0  0  0  0
   30.0120   36.6679   61.0015 C   0  0  0  0  0  0  0  0  0  0  0  0
   29.8349   37.2101   62.2496 C   0  0  0  0  0  0  0  0  0  0  0  0
   30.9568   37.3738   62.9644 C   0  0  0  0  0  0  0  0  0  0  0  0
   32.3231   36.8448   62.0903 S   0  0  0  0  0  0  0  0  0  0  0  0
   32.9570   35.3220   54.7590 H   0  0  0  0  0  0  0  0  0  0  0  0
   35.4762   39.2694   53.1889 H   0  0  0  0  0  0  0  0  0  0  0  0
   31.8755   34.7536   59.4140 H   0  0  0  0  0  0  0  0  0  0  0  0
   29.2003   36.4781   60.3148 H   0  0  0  0  0  0  0  0  0  0  0  0
   28.8617   37.4849   62.6287 H   0  0  0  0  0  0  0  0  0  0  0  0
   30.9913   37.7863   63.9618 H   0  0  0  0  0  0  0  0  0  0  0  0
  1  2  2  0  0  0  0
  2 15  1  0  0  0  0
  2  3  1  0  0  0  0
  3  4  1  0  0  0  0
  4  5  1  0  0  0  0
  4 14  2  0  0  0  0
  5 12  2  0  0  0  0
  5  6  1  0  0  0  0
  6  7  2  0  0  0  0
  6 22  1  0  0  0  0
  7  8  1  0  0  0  0
  7  9  1  0  0  0  0
  9 10  1  0  0  0  0
  9 11  2  0  0  0  0
 11 12  1  0  0  0  0
 11 23  1  0  0  0  0
 12 13  1  0  0  0  0
 14 15  1  0  0  0  0
 15 16  2  0  0  0  0
 16 17  1  0  0  0  0
 16 24  1  0  0  0  0
 17 21  1  0  0  0  0
 17 18  2  0  0  0  0
 18 19  1  0  0  0  0
 18 25  1  0  0  0  0
 19 20  2  0  0  0  0
 19 26  1  0  0  0  0
 20 21  1  0  0  0  0
 20 27  1  0  0  0  0
M  END
$$$$
