ZINC000000012765      none
 OpenBabel11202420153D

 30 32  0  0  0  0  0  0  0  0999 V2000
   32.6523   38.1370   57.8268 O   0  0  0  0  0  0  0  0  0  0  0  0
   32.7021   36.9365   57.6350 C   0  0  0  0  0  0  0  0  0  0  0  0
   33.1233   36.4199   56.3298 C   0  0  0  0  0  0  0  0  0  0  0  0
   32.6420   35.2414   55.8836 C   0  0  0  0  0  0  0  0  0  0  0  0
   33.0646   34.7231   54.5743 C   0  0  0  0  0  0  0  0  0  0  0  0
   32.8391   35.4419   53.4001 C   0  0  0  0  0  0  0  0  0  0  0  0
   33.2553   34.9125   52.1848 C   0  0  0  0  0  0  0  0  0  0  0  0
   33.8627   33.7564   52.0896 N   0  0  0  0  0  0  0  0  0  0  0  0
   34.1286   32.9964   53.1550 C   0  0  0  0  0  0  0  0  0  0  0  0
   34.7822   31.7582   53.0214 C   0  0  0  0  0  0  0  0  0  0  0  0
   35.0378   31.0075   54.1275 C   0  0  0  0  0  0  0  0  0  0  0  0
   34.6625   31.4443   55.3960 C   0  0  0  0  0  0  0  0  0  0  0  0
   34.0268   32.6390   55.5633 C   0  0  0  0  0  0  0  0  0  0  0  0
   33.7493   33.4353   54.4476 C   0  0  0  0  0  0  0  0  0  0  0  0
   32.3699   36.0818   58.6227 N   0  0  0  0  0  0  0  0  0  0  0  0
   31.9681   36.5745   59.8675 C   0  0  0  0  0  0  0  0  0  0  0  0
   31.8690   37.8590   60.2129 N   0  0  0  0  0  0  0  0  0  0  0  0
   31.4684   37.9549   61.4309 N   0  0  0  0  0  0  0  0  0  0  0  0
   31.3010   36.7761   61.9258 N   0  0  0  0  0  0  0  0  0  0  0  0
   31.0076   36.5651   62.8260 H   0  0  0  0  0  0  0  0  0  0  0  0
   31.6238   35.8553   60.9154 N   0  0  0  0  0  0  0  0  0  0  0  0
   33.8189   36.9827   55.7251 H   0  0  0  0  0  0  0  0  0  0  0  0
   31.9464   34.6785   56.4884 H   0  0  0  0  0  0  0  0  0  0  0  0
   32.3412   36.3995   53.4351 H   0  0  0  0  0  0  0  0  0  0  0  0
   33.0709   35.4771   51.2828 H   0  0  0  0  0  0  0  0  0  0  0  0
   35.0797   31.4045   52.0452 H   0  0  0  0  0  0  0  0  0  0  0  0
   35.5397   30.0572   54.0200 H   0  0  0  0  0  0  0  0  0  0  0  0
   34.8774   30.8291   56.2572 H   0  0  0  0  0  0  0  0  0  0  0  0
   33.7399   32.9683   56.5511 H   0  0  0  0  0  0  0  0  0  0  0  0
   32.4097   35.1247   58.4698 H   0  0  0  0  0  0  0  0  0  0  0  0
  1  2  2  0  0  0  0
  2  3  1  0  0  0  0
  2 15  1  0  0  0  0
  3  4  2  0  0  0  0
  3 22  1  0  0  0  0
  4  5  1  0  0  0  0
  4 23  1  0  0  0  0
  5 14  2  0  0  0  0
  5  6  1  0  0  0  0
  6  7  2  0  0  0  0
  6 24  1  0  0  0  0
  7  8  1  0  0  0  0
  7 25  1  0  0  0  0
  8  9  2  0  0  0  0
  9 14  1  0  0  0  0
  9 10  1  0  0  0  0
 10 11  2  0  0  0  0
 10 26  1  0  0  0  0
 11 12  1  0  0  0  0
 11 27  1  0  0  0  0
 12 13  2  0  0  0  0
 12 28  1  0  0  0  0
 13 14  1  0  0  0  0
 13 29  1  0  0  0  0
 15 16  1  0  0  0  0
 15 30  1  0  0  0  0
 16 21  2  0  0  0  0
 16 17  1  0  0  0  0
 17 18  2  0  0  0  0
 18 19  1  0  0  0  0
 19 20  1  0  0  0  0
 19 21  1  0  0  0  0
M  END
$$$$
