ZINC000000053841      none
 OpenBabel11202420153D

 41 43  0  0  0  0  0  0  0  0999 V2000
   30.9898   38.5223   64.2686 C   0  0  0  0  0  0  0  0  0  0  0  0
   29.7517   37.7712   63.7746 C   0  0  0  0  0  0  0  0  0  0  0  0
   28.8478   38.7321   62.9997 C   0  0  0  0  0  0  0  0  0  0  0  0
   30.1646   36.6737   62.8965 N   0  0  0  0  0  0  0  0  0  0  0  0
   29.9230   35.3484   63.0852 C   0  0  0  0  0  0  0  0  0  0  0  0
   29.0470   34.6566   64.4485 S   0  0  0  0  0  0  0  0  0  0  0  0
   30.0662   35.2050   65.7772 C   0  0  0  0  0  0  0  0  0  0  0  0
   31.3594   35.4176   65.7152 N   0  0  0  0  0  0  0  0  0  0  0  0
   31.7994   35.8302   66.9150 C   0  0  0  0  0  0  0  0  0  0  0  0
   30.7529   35.8704   67.7582 C   0  0  0  0  0  0  0  0  0  0  0  0
   29.6465   35.4745   67.0435 N   0  0  0  0  0  0  0  0  0  0  0  0
   28.2762   35.3631   67.5494 C   0  0  0  0  0  0  0  0  0  0  0  0
   30.4467   34.6624   62.0890 N   0  0  0  0  0  0  0  0  0  0  0  0
   31.0385   35.4905   61.2275 C   0  0  0  0  0  0  0  0  0  0  0  0
   30.8829   36.7844   61.7140 C   0  0  0  0  0  0  0  0  0  0  0  0
   31.4142   37.8614   60.9827 C   0  0  0  0  0  0  0  0  0  0  0  0
   31.2850   39.0038   61.3871 O   0  0  0  0  0  0  0  0  0  0  0  0
   32.0731   37.6164   59.8312 N   0  0  0  0  0  0  0  0  0  0  0  0
   32.6336   38.7348   59.0688 C   0  0  0  0  0  0  0  0  0  0  0  0
   32.2228   36.3618   59.3725 C   0  0  0  0  0  0  0  0  0  0  0  0
   32.8225   36.1789   58.3306 O   0  0  0  0  0  0  0  0  0  0  0  0
   31.7250   35.3027   60.0382 N   0  0  0  0  0  0  0  0  0  0  0  0
   31.9085   33.9507   59.5047 C   0  0  0  0  0  0  0  0  0  0  0  0
   31.5349   38.9253   63.4150 H   0  0  0  0  0  0  0  0  0  0  0  0
   30.6828   39.3390   64.9220 H   0  0  0  0  0  0  0  0  0  0  0  0
   31.6338   37.8379   64.8208 H   0  0  0  0  0  0  0  0  0  0  0  0
   29.2067   37.3682   64.6282 H   0  0  0  0  0  0  0  0  0  0  0  0
   27.9658   38.1969   62.6478 H   0  0  0  0  0  0  0  0  0  0  0  0
   28.5406   39.5487   63.6530 H   0  0  0  0  0  0  0  0  0  0  0  0
   29.3929   39.1350   62.1461 H   0  0  0  0  0  0  0  0  0  0  0  0
   32.8201   36.0828   67.1616 H   0  0  0  0  0  0  0  0  0  0  0  0
   30.7767   36.1581   68.7989 H   0  0  0  0  0  0  0  0  0  0  0  0
   28.1142   34.3591   67.9416 H   0  0  0  0  0  0  0  0  0  0  0  0
   28.1219   36.0929   68.3443 H   0  0  0  0  0  0  0  0  0  0  0  0
   27.5728   35.5544   66.7390 H   0  0  0  0  0  0  0  0  0  0  0  0
   33.6535   38.9268   59.4020 H   0  0  0  0  0  0  0  0  0  0  0  0
   32.6389   38.4849   58.0078 H   0  0  0  0  0  0  0  0  0  0  0  0
   32.0253   39.6250   59.2293 H   0  0  0  0  0  0  0  0  0  0  0  0
   32.4671   34.0017   58.5700 H   0  0  0  0  0  0  0  0  0  0  0  0
   32.4607   33.3475   60.2254 H   0  0  0  0  0  0  0  0  0  0  0  0
   30.9344   33.4970   59.3217 H   0  0  0  0  0  0  0  0  0  0  0  0
  1  2  1  0  0  0  0
  1 24  1  0  0  0  0
  1 25  1  0  0  0  0
  1 26  1  0  0  0  0
  2  3  1  0  0  0  0
  2  4  1  0  0  0  0
  2 27  1  0  0  0  0
  3 28  1  0  0  0  0
  3 29  1  0  0  0  0
  3 30  1  0  0  0  0
  4 15  1  0  0  0  0
  4  5  1  0  0  0  0
  5  6  1  0  0  0  0
  5 13  2  0  0  0  0
  6  7  1  0  0  0  0
  7 11  1  0  0  0  0
  7  8  2  0  0  0  0
  8  9  1  0  0  0  0
  9 10  2  0  0  0  0
  9 31  1  0  0  0  0
 10 11  1  0  0  0  0
 10 32  1  0  0  0  0
 11 12  1  0  0  0  0
 12 33  1  0  0  0  0
 12 34  1  0  0  0  0
 12 35  1  0  0  0  0
 13 14  1  0  0  0  0
 14 22  1  0  0  0  0
 14 15  2  0  0  0  0
 15 16  1  0  0  0  0
 16 17  2  0  0  0  0
 16 18  1  0  0  0  0
 18 19  1  0  0  0  0
 18 20  1  0  0  0  0
 19 36  1  0  0  0  0
 19 37  1  0  0  0  0
 19 38  1  0  0  0  0
 20 21  2  0  0  0  0
 20 22  1  0  0  0  0
 22 23  1  0  0  0  0
 23 39  1  0  0  0  0
 23 40  1  0  0  0  0
 23 41  1  0  0  0  0
M  END
$$$$
