ZINC000000028291      none
 OpenBabel11202420163D

 34 34  0  0  1  0  0  0  0  0999 V2000
   31.6303   35.7914   65.7150 C   0  0  0  0  0  0  0  0  0  0  0  0
   32.4323   36.4343   64.5816 C   0  0  0  0  0  0  0  0  0  0  0  0
   31.5646   36.5130   63.3239 C   0  0  2  0  0  0  0  0  0  0  0  0
   31.2668   35.5038   63.0396 H   0  0  0  0  0  0  0  0  0  0  0  0
   32.3771   37.1133   62.2086 C   0  0  0  0  0  0  0  0  0  0  0  0
   31.9581   36.4455   60.8829 C   0  0  0  0  0  0  0  0  0  0  0  0
   30.7253   37.0030   60.3464 C   0  0  0  0  0  0  0  0  0  0  0  0
   29.5249   36.7936   61.2920 C   0  0  0  0  0  0  0  0  0  0  0  0
   29.5815   37.8374   62.3744 C   0  0  0  0  0  0  0  0  0  0  0  0
   30.3007   37.3350   63.6408 C   0  0  2  0  0  0  0  0  0  0  0  0
   29.6117   36.7138   64.2133 H   0  0  0  0  0  0  0  0  0  0  0  0
   30.6833   38.4902   64.4566 N   0  0  0  0  0  0  0  0  0  0  0  0
   29.8234   38.9856   65.3684 C   0  0  0  0  0  0  0  0  0  0  0  0
   30.2169   40.1739   66.2075 C   0  0  0  0  0  0  0  0  0  0  0  0
   28.7328   38.4753   65.5136 O   0  0  0  0  0  0  0  0  0  0  0  0
   30.7456   36.3936   65.9211 H   0  0  0  0  0  0  0  0  0  0  0  0
   31.3258   34.7872   65.4203 H   0  0  0  0  0  0  0  0  0  0  0  0
   32.2486   35.7353   66.6110 H   0  0  0  0  0  0  0  0  0  0  0  0
   33.3171   35.8321   64.3754 H   0  0  0  0  0  0  0  0  0  0  0  0
   32.7369   37.4385   64.8764 H   0  0  0  0  0  0  0  0  0  0  0  0
   33.4368   36.9338   62.3901 H   0  0  0  0  0  0  0  0  0  0  0  0
   32.1917   38.1859   62.1531 H   0  0  0  0  0  0  0  0  0  0  0  0
   31.8177   35.3783   61.0541 H   0  0  0  0  0  0  0  0  0  0  0  0
   32.7548   36.5821   60.1517 H   0  0  0  0  0  0  0  0  0  0  0  0
   30.5090   36.5260   59.3904 H   0  0  0  0  0  0  0  0  0  0  0  0
   30.8643   38.0717   60.1837 H   0  0  0  0  0  0  0  0  0  0  0  0
   29.5789   35.8005   61.7379 H   0  0  0  0  0  0  0  0  0  0  0  0
   28.5953   36.8968   60.7322 H   0  0  0  0  0  0  0  0  0  0  0  0
   28.5645   38.1276   62.6381 H   0  0  0  0  0  0  0  0  0  0  0  0
   30.1082   38.7124   61.9933 H   0  0  0  0  0  0  0  0  0  0  0  0
   31.5555   38.8984   64.3404 H   0  0  0  0  0  0  0  0  0  0  0  0
   30.4300   41.0229   65.5579 H   0  0  0  0  0  0  0  0  0  0  0  0
   29.3997   40.4290   66.8824 H   0  0  0  0  0  0  0  0  0  0  0  0
   31.1056   39.9296   66.7894 H   0  0  0  0  0  0  0  0  0  0  0  0
  1  2  1  0  0  0  0
  1 16  1  0  0  0  0
  1 17  1  0  0  0  0
  1 18  1  0  0  0  0
  2  3  1  0  0  0  0
  2 19  1  0  0  0  0
  2 20  1  0  0  0  0
  3  4  1  6  0  0  0
  3 10  1  0  0  0  0
  3  5  1  0  0  0  0
  5  6  1  0  0  0  0
  5 21  1  0  0  0  0
  5 22  1  0  0  0  0
  6  7  1  0  0  0  0
  6 23  1  0  0  0  0
  6 24  1  0  0  0  0
  7  8  1  0  0  0  0
  7 25  1  0  0  0  0
  7 26  1  0  0  0  0
  8  9  1  0  0  0  0
  8 27  1  0  0  0  0
  8 28  1  0  0  0  0
  9 10  1  0  0  0  0
  9 29  1  0  0  0  0
  9 30  1  0  0  0  0
 10 11  1  1  0  0  0
 10 12  1  0  0  0  0
 12 13  1  0  0  0  0
 12 31  1  0  0  0  0
 13 14  1  0  0  0  0
 13 15  2  0  0  0  0
 14 32  1  0  0  0  0
 14 33  1  0  0  0  0
 14 34  1  0  0  0  0
M  END
$$$$
