ZINC000000053421      none
 OpenBabel11202420153D

 22 23  0  0  0  0  0  0  0  0999 V2000
   33.1361   35.0644   55.7295 C   0  0  0  0  0  0  0  0  0  0  0  0
   32.9507   35.9992   56.8969 C   0  0  0  0  0  0  0  0  0  0  0  0
   32.4824   35.5127   58.0618 N   0  0  0  0  0  0  0  0  0  0  0  0
   32.2718   34.5684   58.1306 H   0  0  0  0  0  0  0  0  0  0  0  0
   32.2988   36.3086   59.1349 C   0  0  0  0  0  0  0  0  0  0  0  0
   31.8734   35.8441   60.1784 O   0  0  0  0  0  0  0  0  0  0  0  0
   32.6039   37.6840   59.0407 C   0  0  0  0  0  0  0  0  0  0  0  0
   33.0924   38.1895   57.8262 C   0  0  0  0  0  0  0  0  0  0  0  0
   33.2617   37.3198   56.7500 C   0  0  0  0  0  0  0  0  0  0  0  0
   33.7850   37.8343   55.4337 C   0  0  0  0  0  0  0  0  0  0  0  0
   33.3115   39.6400   58.0489 C   0  0  0  0  0  0  0  0  0  0  0  0
   33.7267   40.4312   57.2279 O   0  0  0  0  0  0  0  0  0  0  0  0
   32.9644   39.9280   59.3177 N   0  0  0  0  0  0  0  0  0  0  0  0
   32.5387   38.8255   59.9610 C   0  0  0  0  0  0  0  0  0  0  0  0
   32.1611   38.7819   61.1155 O   0  0  0  0  0  0  0  0  0  0  0  0
   34.1643   34.7032   55.7130 H   0  0  0  0  0  0  0  0  0  0  0  0
   32.4555   34.2188   55.8295 H   0  0  0  0  0  0  0  0  0  0  0  0
   32.9224   35.5950   54.8016 H   0  0  0  0  0  0  0  0  0  0  0  0
   34.0584   38.8844   55.5368 H   0  0  0  0  0  0  0  0  0  0  0  0
   34.6623   37.2573   55.1410 H   0  0  0  0  0  0  0  0  0  0  0  0
   33.0126   37.7331   54.6712 H   0  0  0  0  0  0  0  0  0  0  0  0
   33.0150   40.8115   59.7149 H   0  0  0  0  0  0  0  0  0  0  0  0
  1  2  1  0  0  0  0
  1 16  1  0  0  0  0
  1 17  1  0  0  0  0
  1 18  1  0  0  0  0
  2  9  2  0  0  0  0
  2  3  1  0  0  0  0
  3  4  1  0  0  0  0
  3  5  1  0  0  0  0
  5  6  2  0  0  0  0
  5  7  1  0  0  0  0
  7 14  1  0  0  0  0
  7  8  2  0  0  0  0
  8  9  1  0  0  0  0
  8 11  1  0  0  0  0
  9 10  1  0  0  0  0
 10 19  1  0  0  0  0
 10 20  1  0  0  0  0
 10 21  1  0  0  0  0
 11 12  2  0  0  0  0
 11 13  1  0  0  0  0
 13 14  1  0  0  0  0
 13 22  1  0  0  0  0
 14 15  2  0  0  0  0
M  END
$$$$
