ZINC000000049470      none
 OpenBabel11202420153D

 46 47  0  0  1  0  0  0  0  0999 V2000
   26.7212   39.2889   68.3782 C   0  0  0  0  0  0  0  0  0  0  0  0
   26.7326   40.1501   67.1416 C   0  0  0  0  0  0  0  0  0  0  0  0
   25.5285   40.9873   66.7954 C   0  0  0  0  0  0  0  0  0  0  0  0
   27.7892   40.1706   66.3676 C   0  0  0  0  0  0  0  0  0  0  0  0
   28.9459   39.2461   66.6467 C   0  0  0  0  0  0  0  0  0  0  0  0
   29.9365   39.9374   67.5857 C   0  0  0  0  0  0  0  0  0  0  0  0
   31.1109   38.9987   67.8691 C   0  0  1  0  0  0  0  0  0  0  0  0
   31.8003   39.3848   69.1793 C   0  0  0  0  0  0  0  0  0  0  0  0
   30.6580   37.6147   67.9189 O   0  0  0  0  0  0  0  0  0  0  0  0
   31.2703   36.9102   66.9608 C   0  0  0  0  0  0  0  0  0  0  0  0
   31.0738   35.7246   66.7811 O   0  0  0  0  0  0  0  0  0  0  0  0
   32.1210   37.6313   66.2176 N   0  0  0  0  0  0  0  0  0  0  0  0
   32.9238   37.1198   65.1040 C   0  0  0  0  0  0  0  0  0  0  0  0
   32.1466   37.2563   63.8201 C   0  0  0  0  0  0  0  0  0  0  0  0
   32.1177   36.2044   62.9239 C   0  0  0  0  0  0  0  0  0  0  0  0
   31.3947   36.3381   61.7485 C   0  0  0  0  0  0  0  0  0  0  0  0
   30.7346   37.5345   61.5122 C   0  0  0  0  0  0  0  0  0  0  0  0
   30.8140   38.5445   62.4520 C   0  0  0  0  0  0  0  0  0  0  0  0
   31.5065   38.3799   63.5622 N   0  0  0  0  0  0  0  0  0  0  0  0
   32.1172   39.0200   66.7024 C   0  0  2  0  0  0  0  0  0  0  0  0
   33.5080   39.4196   67.1993 C   0  0  0  0  0  0  0  0  0  0  0  0
   31.6754   39.9092   65.6746 O   0  0  0  0  0  0  0  0  0  0  0  0
   27.5758   39.5425   69.0055 H   0  0  0  0  0  0  0  0  0  0  0  0
   25.7990   39.4621   68.9332 H   0  0  0  0  0  0  0  0  0  0  0  0
   26.7804   38.2392   68.0907 H   0  0  0  0  0  0  0  0  0  0  0  0
   24.8528   40.4091   66.1650 H   0  0  0  0  0  0  0  0  0  0  0  0
   25.0123   41.2775   67.7104 H   0  0  0  0  0  0  0  0  0  0  0  0
   25.8490   41.8811   66.2601 H   0  0  0  0  0  0  0  0  0  0  0  0
   27.8314   40.8506   65.5295 H   0  0  0  0  0  0  0  0  0  0  0  0
   29.4460   38.9969   65.7107 H   0  0  0  0  0  0  0  0  0  0  0  0
   28.5771   38.3338   67.1155 H   0  0  0  0  0  0  0  0  0  0  0  0
   29.4365   40.1865   68.5217 H   0  0  0  0  0  0  0  0  0  0  0  0
   30.3054   40.8496   67.1169 H   0  0  0  0  0  0  0  0  0  0  0  0
   32.6460   38.7198   69.3546 H   0  0  0  0  0  0  0  0  0  0  0  0
   31.0916   39.2963   70.0025 H   0  0  0  0  0  0  0  0  0  0  0  0
   32.1546   40.4136   69.1139 H   0  0  0  0  0  0  0  0  0  0  0  0
   33.8493   37.6909   65.0309 H   0  0  0  0  0  0  0  0  0  0  0  0
   33.1578   36.0694   65.2771 H   0  0  0  0  0  0  0  0  0  0  0  0
   32.6478   35.2883   63.1386 H   0  0  0  0  0  0  0  0  0  0  0  0
   31.3508   35.5314   61.0318 H   0  0  0  0  0  0  0  0  0  0  0  0
   30.1653   37.6749   60.6053 H   0  0  0  0  0  0  0  0  0  0  0  0
   30.3027   39.4792   62.2754 H   0  0  0  0  0  0  0  0  0  0  0  0
   33.8472   38.7013   67.9458 H   0  0  0  0  0  0  0  0  0  0  0  0
   34.2045   39.4291   66.3611 H   0  0  0  0  0  0  0  0  0  0  0  0
   33.4628   40.4131   67.6456 H   0  0  0  0  0  0  0  0  0  0  0  0
   32.2724   39.9607   64.9157 H   0  0  0  0  0  0  0  0  0  0  0  0
  1  2  1  0  0  0  0
  1 23  1  0  0  0  0
  1 24  1  0  0  0  0
  1 25  1  0  0  0  0
  2  3  1  0  0  0  0
  2  4  2  0  0  0  0
  3 26  1  0  0  0  0
  3 27  1  0  0  0  0
  3 28  1  0  0  0  0
  4  5  1  0  0  0  0
  4 29  1  0  0  0  0
  5  6  1  0  0  0  0
  5 30  1  0  0  0  0
  5 31  1  0  0  0  0
  6 32  1  0  0  0  0
  6 33  1  0  0  0  0
  7  6  1  6  0  0  0
  7 20  1  0  0  0  0
  7  8  1  0  0  0  0
  7  9  1  0  0  0  0
  8 34  1  0  0  0  0
  8 35  1  0  0  0  0
  8 36  1  0  0  0  0
  9 10  1  0  0  0  0
 10 11  2  0  0  0  0
 10 12  1  0  0  0  0
 12 13  1  0  0  0  0
 12 20  1  0  0  0  0
 13 14  1  0  0  0  0
 13 37  1  0  0  0  0
 13 38  1  0  0  0  0
 14 19  2  0  0  0  0
 14 15  1  0  0  0  0
 15 16  2  0  0  0  0
 15 39  1  0  0  0  0
 16 17  1  0  0  0  0
 16 40  1  0  0  0  0
 17 18  2  0  0  0  0
 17 41  1  0  0  0  0
 18 19  1  0  0  0  0
 18 42  1  0  0  0  0
 20 21  1  0  0  0  0
 20 22  1  6  0  0  0
 21 43  1  0  0  0  0
 21 44  1  0  0  0  0
 21 45  1  0  0  0  0
 22 46  1  0  0  0  0
M  END
$$$$
