ZINC000000024553      none
 OpenBabel11202420153D

 34 35  0  0  1  0  0  0  0  0999 V2000
   33.9935   39.6574   56.1897 C   0  0  0  0  0  0  0  0  0  0  0  0
   33.5115   38.5738   57.0616 C   0  0  0  0  0  0  0  0  0  0  0  0
   33.1272   37.7095   57.7570 C   0  0  0  0  0  0  0  0  0  0  0  0
   32.6583   36.6552   58.6051 C   0  0  0  0  0  0  0  0  0  0  0  0
   32.2997   36.9095   59.9006 C   0  0  0  0  0  0  0  0  0  0  0  0
   31.8580   35.8841   60.6784 N   0  0  0  0  0  0  0  0  0  0  0  0
   31.4703   36.1402   62.0677 C   0  0  2  0  0  0  0  0  0  0  0  0
   32.0868   35.5522   62.7475 H   0  0  0  0  0  0  0  0  0  0  0  0
   29.9753   35.8125   62.2778 C   0  0  0  0  0  0  0  0  0  0  0  0
   29.4865   36.9017   63.2587 C   0  0  1  0  0  0  0  0  0  0  0  0
   28.7032   37.5052   62.7999 H   0  0  0  0  0  0  0  0  0  0  0  0
   29.0151   36.3092   64.4706 O   0  0  0  0  0  0  0  0  0  0  0  0
   30.7440   37.7587   63.5251 C   0  0  2  0  0  0  0  0  0  0  0  0
   31.2489   37.4205   64.4299 H   0  0  0  0  0  0  0  0  0  0  0  0
   30.3657   39.2363   63.6456 C   0  0  0  0  0  0  0  0  0  0  0  0
   29.4483   39.4063   64.7280 O   0  0  0  0  0  0  0  0  0  0  0  0
   31.5857   37.5477   62.3706 O   0  0  0  0  0  0  0  0  0  0  0  0
   31.7745   34.6373   60.1810 C   0  0  0  0  0  0  0  0  0  0  0  0
   31.3754   33.7345   60.8975 O   0  0  0  0  0  0  0  0  0  0  0  0
   32.1189   34.3672   58.9229 N   0  0  0  0  0  0  0  0  0  0  0  0
   32.5564   35.3240   58.1177 C   0  0  0  0  0  0  0  0  0  0  0  0
   32.9088   35.0319   56.8222 N   0  0  0  0  0  0  0  0  0  0  0  0
   34.2262   39.2545   55.2041 H   0  0  0  0  0  0  0  0  0  0  0  0
   33.2204   40.4202   56.0971 H   0  0  0  0  0  0  0  0  0  0  0  0
   34.8906   40.1001   56.6225 H   0  0  0  0  0  0  0  0  0  0  0  0
   32.3620   37.9113   60.2992 H   0  0  0  0  0  0  0  0  0  0  0  0
   29.4337   35.8775   61.3343 H   0  0  0  0  0  0  0  0  0  0  0  0
   29.8595   34.8213   62.7161 H   0  0  0  0  0  0  0  0  0  0  0  0
   29.6772   35.7751   64.9306 H   0  0  0  0  0  0  0  0  0  0  0  0
   31.2625   39.8267   63.8333 H   0  0  0  0  0  0  0  0  0  0  0  0
   29.8993   39.5687   62.7183 H   0  0  0  0  0  0  0  0  0  0  0  0
   29.7974   39.1301   65.5865 H   0  0  0  0  0  0  0  0  0  0  0  0
   32.8376   34.1220   56.4937 H   0  0  0  0  0  0  0  0  0  0  0  0
   33.2286   35.7355   56.2362 H   0  0  0  0  0  0  0  0  0  0  0  0
  1  2  1  0  0  0  0
  1 23  1  0  0  0  0
  1 24  1  0  0  0  0
  1 25  1  0  0  0  0
  2  3  3  0  0  0  0
  3  4  1  0  0  0  0
  4 21  1  0  0  0  0
  4  5  2  0  0  0  0
  5  6  1  0  0  0  0
  5 26  1  0  0  0  0
  6  7  1  0  0  0  0
  6 18  1  0  0  0  0
  7  8  1  1  0  0  0
  7 17  1  0  0  0  0
  7  9  1  0  0  0  0
  9 10  1  0  0  0  0
  9 27  1  0  0  0  0
  9 28  1  0  0  0  0
 10 11  1  6  0  0  0
 10 12  1  0  0  0  0
 10 13  1  0  0  0  0
 12 29  1  0  0  0  0
 13 14  1  1  0  0  0
 13 15  1  0  0  0  0
 13 17  1  0  0  0  0
 15 16  1  0  0  0  0
 15 30  1  0  0  0  0
 15 31  1  0  0  0  0
 16 32  1  0  0  0  0
 18 19  2  0  0  0  0
 18 20  1  0  0  0  0
 20 21  2  0  0  0  0
 21 22  1  0  0  0  0
 22 33  1  0  0  0  0
 22 34  1  0  0  0  0
M  END
$$$$
