ZINC000000003978      none
 OpenBabel11202420153D

 37 39  0  0  1  0  0  0  0  0999 V2000
   29.3581   36.3695   62.1822 C   0  0  0  0  0  0  0  0  0  0  0  0
   30.1924   37.6369   61.9859 C   0  0  1  0  0  0  0  0  0  0  0  0
   29.8481   38.1634   61.0958 H   0  0  0  0  0  0  0  0  0  0  0  0
   30.0301   38.5398   63.2062 C   0  0  0  0  0  0  0  0  0  0  0  0
   30.7824   37.9464   64.3701 C   0  0  0  0  0  0  0  0  0  0  0  0
   30.3646   38.0874   65.5003 O   0  0  0  0  0  0  0  0  0  0  0  0
   31.9206   37.2593   64.1510 N   0  0  0  0  0  0  0  0  0  0  0  0
   32.4108   37.0973   62.8512 N   0  0  0  0  0  0  0  0  0  0  0  0
   31.6409   37.2625   61.8181 C   0  0  0  0  0  0  0  0  0  0  0  0
   32.1732   37.0938   60.5150 C   0  0  0  0  0  0  0  0  0  0  0  0
   32.1552   38.1212   59.6406 C   0  0  0  0  0  0  0  0  0  0  0  0
   32.7078   37.9460   58.2883 C   0  0  0  0  0  0  0  0  0  0  0  0
   32.8639   36.6620   57.7551 C   0  0  0  0  0  0  0  0  0  0  0  0
   33.3813   36.5031   56.4885 C   0  0  0  0  0  0  0  0  0  0  0  0
   33.7482   37.6155   55.7406 C   0  0  0  0  0  0  0  0  0  0  0  0
   34.2738   37.4485   54.4531 N   0  0  0  0  0  0  0  0  0  0  0  0
   33.6486   36.8526   53.3882 C   0  0  0  0  0  0  0  0  0  0  0  0
   34.5087   36.9021   52.3533 C   0  0  0  0  0  0  0  0  0  0  0  0
   35.6275   37.5153   52.7674 N   0  0  0  0  0  0  0  0  0  0  0  0
   35.4979   37.8506   54.0221 C   0  0  0  0  0  0  0  0  0  0  0  0
   33.5999   38.8934   56.2682 C   0  0  0  0  0  0  0  0  0  0  0  0
   33.0782   39.0628   57.5316 C   0  0  0  0  0  0  0  0  0  0  0  0
   29.7026   35.8419   63.0716 H   0  0  0  0  0  0  0  0  0  0  0  0
   28.3093   36.6402   62.3038 H   0  0  0  0  0  0  0  0  0  0  0  0
   29.4681   35.7236   61.3112 H   0  0  0  0  0  0  0  0  0  0  0  0
   28.9736   38.6242   63.4604 H   0  0  0  0  0  0  0  0  0  0  0  0
   30.4301   39.5283   62.9800 H   0  0  0  0  0  0  0  0  0  0  0  0
   32.4028   36.8743   64.8994 H   0  0  0  0  0  0  0  0  0  0  0  0
   32.5932   36.1429   60.2222 H   0  0  0  0  0  0  0  0  0  0  0  0
   31.7353   39.0721   59.9333 H   0  0  0  0  0  0  0  0  0  0  0  0
   32.5791   35.7969   58.3354 H   0  0  0  0  0  0  0  0  0  0  0  0
   33.5026   35.5125   56.0761 H   0  0  0  0  0  0  0  0  0  0  0  0
   32.6580   36.4226   53.3818 H   0  0  0  0  0  0  0  0  0  0  0  0
   34.3288   36.5152   51.3613 H   0  0  0  0  0  0  0  0  0  0  0  0
   36.2415   38.3579   54.6191 H   0  0  0  0  0  0  0  0  0  0  0  0
   33.8906   39.7548   55.6850 H   0  0  0  0  0  0  0  0  0  0  0  0
   32.9596   40.0558   57.9392 H   0  0  0  0  0  0  0  0  0  0  0  0
  1  2  1  0  0  0  0
  1 23  1  0  0  0  0
  1 24  1  0  0  0  0
  1 25  1  0  0  0  0
  2  3  1  6  0  0  0
  2  9  1  0  0  0  0
  2  4  1  0  0  0  0
  4  5  1  0  0  0  0
  4 26  1  0  0  0  0
  4 27  1  0  0  0  0
  5  6  2  0  0  0  0
  5  7  1  0  0  0  0
  7  8  1  0  0  0  0
  7 28  1  0  0  0  0
  8  9  2  0  0  0  0
  9 10  1  0  0  0  0
 10 11  2  0  0  0  0
 10 29  1  0  0  0  0
 11 12  1  0  0  0  0
 11 30  1  0  0  0  0
 12 22  2  0  0  0  0
 12 13  1  0  0  0  0
 13 14  2  0  0  0  0
 13 31  1  0  0  0  0
 14 15  1  0  0  0  0
 14 32  1  0  0  0  0
 15 16  1  0  0  0  0
 15 21  2  0  0  0  0
 16 20  1  0  0  0  0
 16 17  1  0  0  0  0
 17 18  2  0  0  0  0
 17 33  1  0  0  0  0
 18 19  1  0  0  0  0
 18 34  1  0  0  0  0
 19 20  2  0  0  0  0
 20 35  1  0  0  0  0
 21 22  1  0  0  0  0
 21 36  1  0  0  0  0
 22 37  1  0  0  0  0
M  END
$$$$
