ZINC000000043555      none
 OpenBabel11202420153D

 18 18  0  0  0  0  0  0  0  0999 V2000
   29.9709   36.6532   61.0145 N   0  0  0  0  0  0  0  0  0  0  0  0
   30.6173   35.9224   60.4326 C   0  0  0  0  0  0  0  0  0  0  0  0
   31.4320   35.0010   59.6992 C   0  0  0  0  0  0  0  0  0  0  0  0
   32.4204   35.4737   58.8501 C   0  0  0  0  0  0  0  0  0  0  0  0
   32.6231   36.8589   58.7086 C   0  0  0  0  0  0  0  0  0  0  0  0
   33.0888   37.4863   57.5768 C   0  0  0  0  0  0  0  0  0  0  0  0
   33.1907   38.8473   57.7170 C   0  0  0  0  0  0  0  0  0  0  0  0
   33.8103   39.9666   56.3244 Br  0  0  0  0  0  0  0  0  0  0  0  0
   32.8245   39.3259   58.9152 C   0  0  0  0  0  0  0  0  0  0  0  0
   32.3224   38.0665   59.9508 S   0  0  0  0  0  0  0  0  0  0  0  0
   31.2207   33.5572   59.8466 C   0  0  0  0  0  0  0  0  0  0  0  0
   30.8917   32.8114   58.7734 N   0  0  0  0  0  0  0  0  0  0  0  0
   31.3923   32.8194   61.3818 S   0  0  0  0  0  0  0  0  0  0  0  0
   33.0348   34.7788   58.2970 H   0  0  0  0  0  0  0  0  0  0  0  0
   33.3477   36.9608   56.6695 H   0  0  0  0  0  0  0  0  0  0  0  0
   32.8454   40.3705   59.1887 H   0  0  0  0  0  0  0  0  0  0  0  0
   30.7945   33.2294   57.9035 H   0  0  0  0  0  0  0  0  0  0  0  0
   30.7519   31.8565   58.8709 H   0  0  0  0  0  0  0  0  0  0  0  0
  1  2  3  0  0  0  0
  2  3  1  0  0  0  0
  3  4  2  0  0  0  0
  3 11  1  0  0  0  0
  4  5  1  0  0  0  0
  4 14  1  0  0  0  0
  5 10  1  0  0  0  0
  5  6  2  0  0  0  0
  6  7  1  0  0  0  0
  6 15  1  0  0  0  0
  7  8  1  0  0  0  0
  7  9  2  0  0  0  0
  9 10  1  0  0  0  0
  9 16  1  0  0  0  0
 11 12  1  0  0  0  0
 11 13  2  0  0  0  0
 12 17  1  0  0  0  0
 12 18  1  0  0  0  0
M  END
$$$$
