ZINC000000017075      none
 OpenBabel11202420153D

 39 40  0  0  0  0  0  0  0  0999 V2000
   30.8300   35.5183   65.9098 C   0  0  0  0  0  0  0  0  0  0  0  0
   30.8668   36.9214   65.3010 C   0  0  0  0  0  0  0  0  0  0  0  0
   31.4127   37.9109   66.3324 C   0  0  0  0  0  0  0  0  0  0  0  0
   29.4520   37.3380   64.8938 C   0  0  0  0  0  0  0  0  0  0  0  0
   31.7262   36.9188   64.1307 O   0  0  0  0  0  0  0  0  0  0  0  0
   31.3829   36.0957   63.1220 C   0  0  0  0  0  0  0  0  0  0  0  0
   31.3128   34.8976   63.3127 O   0  0  0  0  0  0  0  0  0  0  0  0
   31.1170   36.6004   61.9011 N   0  0  0  0  0  0  0  0  0  0  0  0
   30.7406   35.7148   60.7907 C   0  0  0  0  0  0  0  0  0  0  0  0
   31.6721   35.9871   59.6053 C   0  0  0  0  0  0  0  0  0  0  0  0
   31.6316   37.4779   59.2618 C   0  0  0  0  0  0  0  0  0  0  0  0
   32.5208   37.7438   58.0745 C   0  0  0  0  0  0  0  0  0  0  0  0
   33.1902   38.8825   57.8121 C   0  0  0  0  0  0  0  0  0  0  0  0
   33.8676   38.7111   56.6671 N   0  0  0  0  0  0  0  0  0  0  0  0
   33.6369   37.5123   56.2059 C   0  0  0  0  0  0  0  0  0  0  0  0
   32.8038   36.8742   57.0559 N   0  0  0  0  0  0  0  0  0  0  0  0
   32.4682   35.9690   56.9621 H   0  0  0  0  0  0  0  0  0  0  0  0
   32.1241   38.2925   60.4602 C   0  0  0  0  0  0  0  0  0  0  0  0
   31.1976   38.0467   61.6552 C   0  0  0  0  0  0  0  0  0  0  0  0
   31.8379   35.2216   66.2000 H   0  0  0  0  0  0  0  0  0  0  0  0
   30.1848   35.5204   66.7885 H   0  0  0  0  0  0  0  0  0  0  0  0
   30.4410   34.8134   65.1750 H   0  0  0  0  0  0  0  0  0  0  0  0
   31.4388   38.9105   65.8986 H   0  0  0  0  0  0  0  0  0  0  0  0
   30.7675   37.9129   67.2110 H   0  0  0  0  0  0  0  0  0  0  0  0
   32.4206   37.6142   66.6224 H   0  0  0  0  0  0  0  0  0  0  0  0
   29.0630   36.6331   64.1590 H   0  0  0  0  0  0  0  0  0  0  0  0
   28.8068   37.3400   65.7723 H   0  0  0  0  0  0  0  0  0  0  0  0
   29.4782   38.3376   64.4600 H   0  0  0  0  0  0  0  0  0  0  0  0
   29.7094   35.9136   60.4983 H   0  0  0  0  0  0  0  0  0  0  0  0
   30.8402   34.6753   61.1025 H   0  0  0  0  0  0  0  0  0  0  0  0
   31.3435   35.4062   58.7435 H   0  0  0  0  0  0  0  0  0  0  0  0
   32.6904   35.7021   59.8695 H   0  0  0  0  0  0  0  0  0  0  0  0
   30.6087   37.7676   59.0215 H   0  0  0  0  0  0  0  0  0  0  0  0
   33.1853   39.7758   58.4189 H   0  0  0  0  0  0  0  0  0  0  0  0
   34.0480   37.0974   55.2975 H   0  0  0  0  0  0  0  0  0  0  0  0
   33.1381   37.9857   60.7167 H   0  0  0  0  0  0  0  0  0  0  0  0
   32.1174   39.3527   60.2070 H   0  0  0  0  0  0  0  0  0  0  0  0
   30.2037   38.4356   61.4332 H   0  0  0  0  0  0  0  0  0  0  0  0
   31.5964   38.5459   62.5381 H   0  0  0  0  0  0  0  0  0  0  0  0
  1  2  1  0  0  0  0
  1 20  1  0  0  0  0
  1 21  1  0  0  0  0
  1 22  1  0  0  0  0
  2  3  1  0  0  0  0
  2  4  1  0  0  0  0
  2  5  1  0  0  0  0
  3 23  1  0  0  0  0
  3 24  1  0  0  0  0
  3 25  1  0  0  0  0
  4 26  1  0  0  0  0
  4 27  1  0  0  0  0
  4 28  1  0  0  0  0
  5  6  1  0  0  0  0
  6  7  2  0  0  0  0
  6  8  1  0  0  0  0
  8 19  1  0  0  0  0
  8  9  1  0  0  0  0
  9 10  1  0  0  0  0
  9 29  1  0  0  0  0
  9 30  1  0  0  0  0
 10 11  1  0  0  0  0
 10 31  1  0  0  0  0
 10 32  1  0  0  0  0
 11 12  1  0  0  0  0
 11 18  1  0  0  0  0
 11 33  1  0  0  0  0
 12 16  1  0  0  0  0
 12 13  2  0  0  0  0
 13 14  1  0  0  0  0
 13 34  1  0  0  0  0
 14 15  2  0  0  0  0
 15 16  1  0  0  0  0
 15 35  1  0  0  0  0
 16 17  1  0  0  0  0
 18 19  1  0  0  0  0
 18 36  1  0  0  0  0
 18 37  1  0  0  0  0
 19 38  1  0  0  0  0
 19 39  1  0  0  0  0
M  END
$$$$
