ZINC000000037421      none
 OpenBabel11202420153D

 35 37  0  0  1  0  0  0  0  0999 V2000
   32.1552   36.4478   67.8639 C   0  0  0  0  0  0  0  0  0  0  0  0
   32.0585   37.8128   67.2327 C   0  0  0  0  0  0  0  0  0  0  0  0
   32.8419   38.6855   67.5494 O   0  0  0  0  0  0  0  0  0  0  0  0
   31.0607   38.0765   66.2765 C   0  0  0  0  0  0  0  0  0  0  0  0
   31.3138   37.8586   64.9728 C   0  0  0  0  0  0  0  0  0  0  0  0
   32.6698   37.3388   64.5700 C   0  0  0  0  0  0  0  0  0  0  0  0
   30.3993   38.0895   64.0218 O   0  0  0  0  0  0  0  0  0  0  0  0
   29.3496   38.8868   64.2854 C   0  0  0  0  0  0  0  0  0  0  0  0
   28.6463   39.4330   63.2406 N   0  0  0  0  0  0  0  0  0  0  0  0
   28.9703   39.1705   65.5564 C   0  0  0  0  0  0  0  0  0  0  0  0
   27.8427   40.0221   65.7887 C   0  0  0  0  0  0  0  0  0  0  0  0
   26.9482   40.6977   65.9730 N   0  0  0  0  0  0  0  0  0  0  0  0
   29.7248   38.5976   66.7215 C   0  0  2  0  0  0  0  0  0  0  0  0
   29.8986   39.6400   67.8001 C   0  0  0  0  0  0  0  0  0  0  0  0
   30.4861   40.6960   67.6952 O   0  0  0  0  0  0  0  0  0  0  0  0
   29.2779   39.1754   68.8990 N   0  0  0  0  0  0  0  0  0  0  0  0
   28.6962   37.9238   68.6868 C   0  0  0  0  0  0  0  0  0  0  0  0
   27.9696   37.1000   69.5440 C   0  0  0  0  0  0  0  0  0  0  0  0
   27.4885   35.8869   69.0974 C   0  0  0  0  0  0  0  0  0  0  0  0
   27.7219   35.4785   67.7958 C   0  0  0  0  0  0  0  0  0  0  0  0
   27.1121   33.9510   67.2401 Cl  0  0  0  0  0  0  0  0  0  0  0  0
   28.4429   36.2920   66.9379 C   0  0  0  0  0  0  0  0  0  0  0  0
   28.9246   37.5029   67.3819 C   0  0  0  0  0  0  0  0  0  0  0  0
   32.8847   35.8471   67.3207 H   0  0  0  0  0  0  0  0  0  0  0  0
   32.4696   36.5493   68.9026 H   0  0  0  0  0  0  0  0  0  0  0  0
   31.1814   35.9597   67.8250 H   0  0  0  0  0  0  0  0  0  0  0  0
   32.7063   37.2198   63.4871 H   0  0  0  0  0  0  0  0  0  0  0  0
   33.4379   38.0457   64.8838 H   0  0  0  0  0  0  0  0  0  0  0  0
   32.8460   36.3750   65.0475 H   0  0  0  0  0  0  0  0  0  0  0  0
   28.9090   39.2417   62.3266 H   0  0  0  0  0  0  0  0  0  0  0  0
   27.8868   40.0101   63.4162 H   0  0  0  0  0  0  0  0  0  0  0  0
   29.2391   39.6541   69.7417 H   0  0  0  0  0  0  0  0  0  0  0  0
   27.7833   37.4119   70.5610 H   0  0  0  0  0  0  0  0  0  0  0  0
   26.9265   35.2527   69.7669 H   0  0  0  0  0  0  0  0  0  0  0  0
   28.6275   35.9767   65.9215 H   0  0  0  0  0  0  0  0  0  0  0  0
  1  2  1  0  0  0  0
  1 24  1  0  0  0  0
  1 25  1  0  0  0  0
  1 26  1  0  0  0  0
  2  3  2  0  0  0  0
  2  4  1  0  0  0  0
  4  5  2  0  0  0  0
  5  6  1  0  0  0  0
  5  7  1  0  0  0  0
  6 27  1  0  0  0  0
  6 28  1  0  0  0  0
  6 29  1  0  0  0  0
  7  8  1  0  0  0  0
  8  9  1  0  0  0  0
  8 10  2  0  0  0  0
  9 30  1  0  0  0  0
  9 31  1  0  0  0  0
 10 11  1  0  0  0  0
 10 13  1  0  0  0  0
 11 12  3  0  0  0  0
 13  4  1  6  0  0  0
 13 23  1  0  0  0  0
 13 14  1  0  0  0  0
 14 15  2  0  0  0  0
 14 16  1  0  0  0  0
 16 17  1  0  0  0  0
 16 32  1  0  0  0  0
 17 23  2  0  0  0  0
 17 18  1  0  0  0  0
 18 19  2  0  0  0  0
 18 33  1  0  0  0  0
 19 20  1  0  0  0  0
 19 34  1  0  0  0  0
 20 21  1  0  0  0  0
 20 22  2  0  0  0  0
 22 23  1  0  0  0  0
 22 35  1  0  0  0  0
M  END
$$$$
