ZINC000000055436      none
 OpenBabel11202420153D

 30 32  0  0  0  0  0  0  0  0999 V2000
   32.2187   38.7332   60.6107 O   0  0  0  0  0  0  0  0  0  0  0  0
   32.3319   37.8760   59.7553 C   0  0  0  0  0  0  0  0  0  0  0  0
   32.7763   38.0337   58.4898 O   0  0  0  0  0  0  0  0  0  0  0  0
   32.7475   36.8382   57.8701 C   0  0  0  0  0  0  0  0  0  0  0  0
   33.1622   36.6188   56.4709 C   0  0  0  0  0  0  0  0  0  0  0  0
   33.0924   35.3411   55.9100 C   0  0  0  0  0  0  0  0  0  0  0  0
   33.4815   35.1432   54.6022 C   0  0  0  0  0  0  0  0  0  0  0  0
   33.9409   36.2062   53.8434 C   0  0  0  0  0  0  0  0  0  0  0  0
   34.0138   37.4743   54.3896 C   0  0  0  0  0  0  0  0  0  0  0  0
   33.6221   37.6900   55.6978 C   0  0  0  0  0  0  0  0  0  0  0  0
   33.6883   38.9303   56.2292 F   0  0  0  0  0  0  0  0  0  0  0  0
   32.3069   35.8981   58.6604 N   0  0  0  0  0  0  0  0  0  0  0  0
   32.0137   36.4400   59.8778 C   0  0  0  0  0  0  0  0  0  0  0  0
   31.5239   35.7854   60.9864 C   0  0  0  0  0  0  0  0  0  0  0  0
   31.4350   36.4861   62.2719 C   0  0  0  0  0  0  0  0  0  0  0  0
   30.2698   37.1852   62.6140 C   0  0  0  0  0  0  0  0  0  0  0  0
   30.1942   37.8409   63.8237 C   0  0  0  0  0  0  0  0  0  0  0  0
   31.2650   37.8101   64.7010 C   0  0  0  0  0  0  0  0  0  0  0  0
   32.4212   37.1214   64.3715 C   0  0  0  0  0  0  0  0  0  0  0  0
   33.7564   37.0908   65.4806 Cl  0  0  0  0  0  0  0  0  0  0  0  0
   32.5118   36.4551   63.1668 C   0  0  0  0  0  0  0  0  0  0  0  0
   32.7337   34.5104   56.4995 H   0  0  0  0  0  0  0  0  0  0  0  0
   33.4276   34.1557   54.1683 H   0  0  0  0  0  0  0  0  0  0  0  0
   34.2441   36.0439   52.8197 H   0  0  0  0  0  0  0  0  0  0  0  0
   34.3731   38.2987   53.7916 H   0  0  0  0  0  0  0  0  0  0  0  0
   31.2055   34.7564   60.9090 H   0  0  0  0  0  0  0  0  0  0  0  0
   29.4332   37.2099   61.9316 H   0  0  0  0  0  0  0  0  0  0  0  0
   29.2968   38.3801   64.0886 H   0  0  0  0  0  0  0  0  0  0  0  0
   31.1986   38.3262   65.6473 H   0  0  0  0  0  0  0  0  0  0  0  0
   33.4118   35.9147   62.9132 H   0  0  0  0  0  0  0  0  0  0  0  0
  1  2  2  0  0  0  0
  2 13  1  0  0  0  0
  2  3  1  0  0  0  0
  3  4  1  0  0  0  0
  4  5  1  0  0  0  0
  4 12  2  0  0  0  0
  5 10  2  0  0  0  0
  5  6  1  0  0  0  0
  6  7  2  0  0  0  0
  6 22  1  0  0  0  0
  7  8  1  0  0  0  0
  7 23  1  0  0  0  0
  8  9  2  0  0  0  0
  8 24  1  0  0  0  0
  9 10  1  0  0  0  0
  9 25  1  0  0  0  0
 10 11  1  0  0  0  0
 12 13  1  0  0  0  0
 13 14  2  0  0  0  0
 14 15  1  0  0  0  0
 14 26  1  0  0  0  0
 15 21  2  0  0  0  0
 15 16  1  0  0  0  0
 16 17  2  0  0  0  0
 16 27  1  0  0  0  0
 17 18  1  0  0  0  0
 17 28  1  0  0  0  0
 18 19  2  0  0  0  0
 18 29  1  0  0  0  0
 19 20  1  0  0  0  0
 19 21  1  0  0  0  0
 21 30  1  0  0  0  0
M  END
$$$$
