ZINC000000046278      none
 OpenBabel11202420153D

 31 31  0  0  0  0  0  0  0  0999 V2000
   31.6288   40.2732   67.7732 C   0  0  0  0  0  0  0  0  0  0  0  0
   32.0063   39.3754   66.6964 O   0  0  0  0  0  0  0  0  0  0  0  0
   31.3289   39.4918   65.5363 C   0  0  0  0  0  0  0  0  0  0  0  0
   30.4466   40.3214   65.4280 O   0  0  0  0  0  0  0  0  0  0  0  0
   31.6567   38.6167   64.4036 C   0  0  0  0  0  0  0  0  0  0  0  0
   32.6958   37.6397   64.5310 C   0  0  0  0  0  0  0  0  0  0  0  0
   33.5202   36.8645   64.6321 N   0  0  0  0  0  0  0  0  0  0  0  0
   30.9628   38.7360   63.2152 C   0  0  0  0  0  0  0  0  0  0  0  0
   31.1766   37.7996   62.1724 C   0  0  0  0  0  0  0  0  0  0  0  0
   31.6454   38.2312   60.9214 C   0  0  0  0  0  0  0  0  0  0  0  0
   31.8505   37.3272   59.9202 C   0  0  0  0  0  0  0  0  0  0  0  0
   32.4815   37.9158   58.2376 Br  0  0  0  0  0  0  0  0  0  0  0  0
   31.5974   35.9725   60.1299 C   0  0  0  0  0  0  0  0  0  0  0  0
   31.8052   35.0841   59.1257 O   0  0  0  0  0  0  0  0  0  0  0  0
   31.5264   33.7109   59.4064 C   0  0  0  0  0  0  0  0  0  0  0  0
   31.1338   35.5276   61.3598 C   0  0  0  0  0  0  0  0  0  0  0  0
   30.9204   36.4310   62.3859 C   0  0  0  0  0  0  0  0  0  0  0  0
   30.4668   36.0014   63.5897 O   0  0  0  0  0  0  0  0  0  0  0  0
   30.2298   34.5993   63.7311 C   0  0  0  0  0  0  0  0  0  0  0  0
   31.7718   41.3052   67.4527 H   0  0  0  0  0  0  0  0  0  0  0  0
   30.5812   40.1140   68.0284 H   0  0  0  0  0  0  0  0  0  0  0  0
   32.2499   40.0745   68.6466 H   0  0  0  0  0  0  0  0  0  0  0  0
   30.2574   39.5427   63.0804 H   0  0  0  0  0  0  0  0  0  0  0  0
   31.8479   39.2786   60.7528 H   0  0  0  0  0  0  0  0  0  0  0  0
   30.4773   33.6020   59.6813 H   0  0  0  0  0  0  0  0  0  0  0  0
   31.7343   33.1097   58.5212 H   0  0  0  0  0  0  0  0  0  0  0  0
   32.1548   33.3737   60.2305 H   0  0  0  0  0  0  0  0  0  0  0  0
   30.9392   34.4768   61.5160 H   0  0  0  0  0  0  0  0  0  0  0  0
   31.1575   34.0545   63.5562 H   0  0  0  0  0  0  0  0  0  0  0  0
   29.8707   34.3913   64.7390 H   0  0  0  0  0  0  0  0  0  0  0  0
   29.4803   34.2826   63.0058 H   0  0  0  0  0  0  0  0  0  0  0  0
  1  2  1  0  0  0  0
  1 20  1  0  0  0  0
  1 21  1  0  0  0  0
  1 22  1  0  0  0  0
  2  3  1  0  0  0  0
  3  4  2  0  0  0  0
  3  5  1  0  0  0  0
  5  6  1  0  0  0  0
  5  8  2  0  0  0  0
  6  7  3  0  0  0  0
  8  9  1  0  0  0  0
  8 23  1  0  0  0  0
  9 17  2  0  0  0  0
  9 10  1  0  0  0  0
 10 11  2  0  0  0  0
 10 24  1  0  0  0  0
 11 12  1  0  0  0  0
 11 13  1  0  0  0  0
 13 14  1  0  0  0  0
 13 16  2  0  0  0  0
 14 15  1  0  0  0  0
 15 25  1  0  0  0  0
 15 26  1  0  0  0  0
 15 27  1  0  0  0  0
 16 17  1  0  0  0  0
 16 28  1  0  0  0  0
 17 18  1  0  0  0  0
 18 19  1  0  0  0  0
 19 29  1  0  0  0  0
 19 30  1  0  0  0  0
 19 31  1  0  0  0  0
M  END
$$$$
