ZINC000000030926      none
 OpenBabel11202420163D

 39 40  0  0  1  0  0  0  0  0999 V2000
   29.4864   35.1887   65.8880 C   0  0  0  0  0  0  0  0  0  0  0  0
   30.2528   35.5819   64.6234 C   0  0  2  0  0  0  0  0  0  0  0  0
   30.2710   34.7392   63.9322 H   0  0  0  0  0  0  0  0  0  0  0  0
   31.6861   35.9694   64.9944 C   0  0  0  0  0  0  0  0  0  0  0  0
   32.4631   36.3305   63.7265 C   0  0  1  0  0  0  0  0  0  0  0  0
   33.4903   36.5838   63.9890 H   0  0  0  0  0  0  0  0  0  0  0  0
   32.4595   35.1378   62.7682 C   0  0  0  0  0  0  0  0  0  0  0  0
   31.7973   37.5325   63.0492 C   0  0  0  0  0  0  0  0  0  0  0  0
   30.3798   37.2209   62.8201 N   0  0  0  0  0  0  0  0  0  0  0  0
   29.8401   37.3419   61.5911 C   0  0  0  0  0  0  0  0  0  0  0  0
   28.6687   37.0816   61.4149 O   0  0  0  0  0  0  0  0  0  0  0  0
   30.6921   37.8008   60.4357 C   0  0  0  0  0  0  0  0  0  0  0  0
   31.7740   36.8863   60.2491 O   0  0  0  0  0  0  0  0  0  0  0  0
   32.2487   36.7420   58.9839 C   0  0  0  0  0  0  0  0  0  0  0  0
   32.8029   35.5351   58.5831 C   0  0  0  0  0  0  0  0  0  0  0  0
   33.2894   35.3927   57.2980 C   0  0  0  0  0  0  0  0  0  0  0  0
   33.2251   36.4520   56.4118 C   0  0  0  0  0  0  0  0  0  0  0  0
   32.6730   37.6560   56.8088 C   0  0  0  0  0  0  0  0  0  0  0  0
   32.1848   37.8033   58.0926 C   0  0  0  0  0  0  0  0  0  0  0  0
   29.5604   36.7809   63.9575 C   0  0  0  0  0  0  0  0  0  0  0  0
   29.4675   36.0321   66.5783 H   0  0  0  0  0  0  0  0  0  0  0  0
   28.4656   34.9129   65.6232 H   0  0  0  0  0  0  0  0  0  0  0  0
   29.9802   34.3411   66.3632 H   0  0  0  0  0  0  0  0  0  0  0  0
   32.1721   35.1297   65.4915 H   0  0  0  0  0  0  0  0  0  0  0  0
   31.6679   36.8276   65.6661 H   0  0  0  0  0  0  0  0  0  0  0  0
   33.0106   35.3965   61.8640 H   0  0  0  0  0  0  0  0  0  0  0  0
   32.9334   34.2828   63.2504 H   0  0  0  0  0  0  0  0  0  0  0  0
   31.4319   34.8844   62.5074 H   0  0  0  0  0  0  0  0  0  0  0  0
   32.2863   37.7319   62.0957 H   0  0  0  0  0  0  0  0  0  0  0  0
   31.8794   38.4072   63.6944 H   0  0  0  0  0  0  0  0  0  0  0  0
   31.0881   38.7937   60.6483 H   0  0  0  0  0  0  0  0  0  0  0  0
   30.0868   37.8373   59.5301 H   0  0  0  0  0  0  0  0  0  0  0  0
   32.8535   34.7074   59.2749 H   0  0  0  0  0  0  0  0  0  0  0  0
   33.7207   34.4531   56.9855 H   0  0  0  0  0  0  0  0  0  0  0  0
   33.6063   36.3387   55.4077 H   0  0  0  0  0  0  0  0  0  0  0  0
   32.6239   38.4819   56.1147 H   0  0  0  0  0  0  0  0  0  0  0  0
   31.7541   38.7440   58.4024 H   0  0  0  0  0  0  0  0  0  0  0  0
   29.4639   37.5955   64.6752 H   0  0  0  0  0  0  0  0  0  0  0  0
   28.5732   36.4841   63.6035 H   0  0  0  0  0  0  0  0  0  0  0  0
  1  2  1  0  0  0  0
  1 21  1  0  0  0  0
  1 22  1  0  0  0  0
  1 23  1  0  0  0  0
  2  3  1  6  0  0  0
  2 20  1  0  0  0  0
  2  4  1  0  0  0  0
  4  5  1  0  0  0  0
  4 24  1  0  0  0  0
  4 25  1  0  0  0  0
  5  6  1  1  0  0  0
  5  7  1  0  0  0  0
  5  8  1  0  0  0  0
  7 26  1  0  0  0  0
  7 27  1  0  0  0  0
  7 28  1  0  0  0  0
  8  9  1  0  0  0  0
  8 29  1  0  0  0  0
  8 30  1  0  0  0  0
  9 10  1  0  0  0  0
  9 20  1  0  0  0  0
 10 11  2  0  0  0  0
 10 12  1  0  0  0  0
 12 13  1  0  0  0  0
 12 31  1  0  0  0  0
 12 32  1  0  0  0  0
 13 14  1  0  0  0  0
 14 19  2  0  0  0  0
 14 15  1  0  0  0  0
 15 16  2  0  0  0  0
 15 33  1  0  0  0  0
 16 17  1  0  0  0  0
 16 34  1  0  0  0  0
 17 18  2  0  0  0  0
 17 35  1  0  0  0  0
 18 19  1  0  0  0  0
 18 36  1  0  0  0  0
 19 37  1  0  0  0  0
 20 38  1  0  0  0  0
 20 39  1  0  0  0  0
M  END
$$$$
