ZINC000000000707      none
 OpenBabel11202420153D

 36 38  0  0  1  0  0  0  0  0999 V2000
   28.1671   37.2177   62.0109 C   0  0  0  0  0  0  0  0  0  0  0  0
   29.6172   36.8228   61.8995 C   0  0  0  0  0  0  0  0  0  0  0  0
   30.4276   36.7389   62.9819 C   0  0  0  0  0  0  0  0  0  0  0  0
   29.8343   37.0892   64.3090 C   0  0  2  0  0  0  0  0  0  0  0  0
   29.0799   36.3509   64.5809 H   0  0  0  0  0  0  0  0  0  0  0  0
   29.2243   38.4133   64.2507 O   0  0  0  0  0  0  0  0  0  0  0  0
   29.2536   38.9809   65.4654 C   0  0  0  0  0  0  0  0  0  0  0  0
   28.5416   39.8883   65.8255 O   0  0  0  0  0  0  0  0  0  0  0  0
   30.3117   38.3142   66.3181 C   0  0  2  0  0  0  0  0  0  0  0  0
   29.8661   37.8924   67.2189 H   0  0  0  0  0  0  0  0  0  0  0  0
   31.4090   39.3152   66.6857 C   0  0  0  0  0  0  0  0  0  0  0  0
   30.8847   37.1911   65.4238 C   0  0  2  0  0  0  0  0  0  0  0  0
   30.9991   36.2575   65.9746 H   0  0  0  0  0  0  0  0  0  0  0  0
   32.2145   37.6584   64.8307 C   0  0  0  0  0  0  0  0  0  0  0  0
   32.7570   36.5405   63.9410 C   0  0  0  0  0  0  0  0  0  0  0  0
   31.8412   36.3127   62.7545 C   0  0  1  0  0  0  0  0  0  0  0  0
   31.8165   34.8053   62.4935 C   0  0  0  0  0  0  0  0  0  0  0  0
   32.4154   36.9488   61.5138 C   0  0  0  0  0  0  0  0  0  0  0  0
   31.6301   37.0323   60.4238 C   0  0  0  0  0  0  0  0  0  0  0  0
   30.2502   36.4938   60.5961 C   0  0  0  0  0  0  0  0  0  0  0  0
   29.6855   35.8399   59.7392 O   0  0  0  0  0  0  0  0  0  0  0  0
   28.0772   38.3002   61.9197 H   0  0  0  0  0  0  0  0  0  0  0  0
   27.7776   36.9010   62.9784 H   0  0  0  0  0  0  0  0  0  0  0  0
   27.5976   36.7375   61.2151 H   0  0  0  0  0  0  0  0  0  0  0  0
   31.8161   39.7581   65.7767 H   0  0  0  0  0  0  0  0  0  0  0  0
   30.9891   40.0994   67.3156 H   0  0  0  0  0  0  0  0  0  0  0  0
   32.2034   38.8010   67.2267 H   0  0  0  0  0  0  0  0  0  0  0  0
   32.9224   37.8665   65.6329 H   0  0  0  0  0  0  0  0  0  0  0  0
   32.0564   38.5581   64.2360 H   0  0  0  0  0  0  0  0  0  0  0  0
   32.8282   35.6210   64.5220 H   0  0  0  0  0  0  0  0  0  0  0  0
   33.7485   36.8166   63.5820 H   0  0  0  0  0  0  0  0  0  0  0  0
   31.2055   34.5988   61.6148 H   0  0  0  0  0  0  0  0  0  0  0  0
   32.8324   34.4497   62.3214 H   0  0  0  0  0  0  0  0  0  0  0  0
   31.3940   34.2937   63.3582 H   0  0  0  0  0  0  0  0  0  0  0  0
   33.4272   37.3261   61.5001 H   0  0  0  0  0  0  0  0  0  0  0  0
   31.9756   37.4553   59.4922 H   0  0  0  0  0  0  0  0  0  0  0  0
  1  2  1  0  0  0  0
  1 22  1  0  0  0  0
  1 23  1  0  0  0  0
  1 24  1  0  0  0  0
  2 20  1  0  0  0  0
  2  3  2  0  0  0  0
  3 16  1  0  0  0  0
  3  4  1  0  0  0  0
  4  5  1  1  0  0  0
  4 12  1  0  0  0  0
  4  6  1  0  0  0  0
  6  7  1  0  0  0  0
  7  8  2  0  0  0  0
  7  9  1  0  0  0  0
  9 10  1  1  0  0  0
  9 11  1  0  0  0  0
  9 12  1  0  0  0  0
 11 25  1  0  0  0  0
 11 26  1  0  0  0  0
 11 27  1  0  0  0  0
 12 13  1  1  0  0  0
 12 14  1  0  0  0  0
 14 15  1  0  0  0  0
 14 28  1  0  0  0  0
 14 29  1  0  0  0  0
 15 16  1  0  0  0  0
 15 30  1  0  0  0  0
 15 31  1  0  0  0  0
 16 17  1  6  0  0  0
 16 18  1  0  0  0  0
 17 32  1  0  0  0  0
 17 33  1  0  0  0  0
 17 34  1  0  0  0  0
 18 19  2  0  0  0  0
 18 35  1  0  0  0  0
 19 20  1  0  0  0  0
 19 36  1  0  0  0  0
 20 21  2  0  0  0  0
M  END
$$$$
