ZINC000000057331      none
 OpenBabel11202420153D

 29 30  0  0  1  0  0  0  0  0999 V2000
   31.8136   36.0381   67.5322 N   0  0  0  0  0  0  0  0  0  0  0  0
   31.9056   35.9857   66.1606 C   0  0  0  0  0  0  0  0  0  0  0  0
   32.8516   36.7815   65.4825 C   0  0  0  0  0  0  0  0  0  0  0  0
   32.9212   36.7102   64.1321 C   0  0  0  0  0  0  0  0  0  0  0  0
   32.0777   35.8738   63.4645 N   0  0  0  0  0  0  0  0  0  0  0  0
   32.1426   35.7872   62.0035 C   0  0  2  0  0  0  0  0  0  0  0  0
   32.8483   35.0100   61.7103 H   0  0  0  0  0  0  0  0  0  0  0  0
   32.5537   37.0471   61.4599 O   0  0  0  0  0  0  0  0  0  0  0  0
   31.5170   37.5814   60.6214 C   0  0  1  0  0  0  0  0  0  0  0  0
   30.8868   38.2661   61.1887 H   0  0  0  0  0  0  0  0  0  0  0  0
   32.1267   38.2982   59.4149 C   0  0  0  0  0  0  0  0  0  0  0  0
   32.9587   39.3683   59.8670 O   0  0  0  0  0  0  0  0  0  0  0  0
   30.6971   36.3510   60.1581 C   0  0  1  0  0  0  0  0  0  0  0  0
   29.6732   36.6315   59.9113 H   0  0  0  0  0  0  0  0  0  0  0  0
   31.3289   35.6962   59.0562 O   0  0  0  0  0  0  0  0  0  0  0  0
   30.7432   35.4682   61.4350 C   0  0  1  0  0  0  0  0  0  0  0  0
   29.9630   35.7613   62.1376 H   0  0  0  0  0  0  0  0  0  0  0  0
   30.6362   34.1124   61.1071 F   0  0  0  0  0  0  0  0  0  0  0  0
   31.1817   35.1310   64.1399 C   0  0  0  0  0  0  0  0  0  0  0  0
   30.4309   34.3913   63.5257 O   0  0  0  0  0  0  0  0  0  0  0  0
   31.1048   35.1860   65.4684 N   0  0  0  0  0  0  0  0  0  0  0  0
   32.4005   36.6236   68.0356 H   0  0  0  0  0  0  0  0  0  0  0  0
   31.1617   35.4894   67.9958 H   0  0  0  0  0  0  0  0  0  0  0  0
   33.5108   37.4374   66.0318 H   0  0  0  0  0  0  0  0  0  0  0  0
   33.6378   37.3097   63.5901 H   0  0  0  0  0  0  0  0  0  0  0  0
   32.7237   37.5930   58.8367 H   0  0  0  0  0  0  0  0  0  0  0  0
   31.3291   38.6978   58.7886 H   0  0  0  0  0  0  0  0  0  0  0  0
   32.4927   40.0351   60.3897 H   0  0  0  0  0  0  0  0  0  0  0  0
   30.8508   34.9203   58.7330 H   0  0  0  0  0  0  0  0  0  0  0  0
  1  2  1  0  0  0  0
  1 22  1  0  0  0  0
  1 23  1  0  0  0  0
  2 21  2  0  0  0  0
  2  3  1  0  0  0  0
  3  4  2  0  0  0  0
  3 24  1  0  0  0  0
  4  5  1  0  0  0  0
  4 25  1  0  0  0  0
  5  6  1  0  0  0  0
  5 19  1  0  0  0  0
  6  7  1  6  0  0  0
  6 16  1  0  0  0  0
  6  8  1  0  0  0  0
  8  9  1  0  0  0  0
  9 10  1  1  0  0  0
  9 11  1  0  0  0  0
  9 13  1  0  0  0  0
 11 12  1  0  0  0  0
 11 26  1  0  0  0  0
 11 27  1  0  0  0  0
 12 28  1  0  0  0  0
 13 14  1  6  0  0  0
 13 15  1  0  0  0  0
 13 16  1  0  0  0  0
 15 29  1  0  0  0  0
 16 17  1  1  0  0  0
 16 18  1  0  0  0  0
 19 20  2  0  0  0  0
 19 21  1  0  0  0  0
M  END
$$$$
