ZINC000000015553      none
 OpenBabel11202420153D

 35 37  0  0  0  0  0  0  0  0999 V2000
   31.7516   33.2354   60.1328 C   0  0  0  0  0  0  0  0  0  0  0  0
   32.6353   33.6542   59.0593 O   0  0  0  0  0  0  0  0  0  0  0  0
   32.2506   33.3609   57.7999 C   0  0  0  0  0  0  0  0  0  0  0  0
   31.2048   32.7711   57.6052 O   0  0  0  0  0  0  0  0  0  0  0  0
   33.0919   33.7529   56.6677 C   0  0  0  0  0  0  0  0  0  0  0  0
   33.6727   32.8938   55.7181 C   0  0  0  0  0  0  0  0  0  0  0  0
   34.3528   33.6119   54.8633 N   0  0  0  0  0  0  0  0  0  0  0  0
   34.2545   34.9666   55.2039 N   0  0  0  0  0  0  0  0  0  0  0  0
   34.7759   36.0903   54.6345 C   0  0  0  0  0  0  0  0  0  0  0  0
   34.5318   37.3109   55.1616 C   0  0  0  0  0  0  0  0  0  0  0  0
   33.7308   37.4419   56.3035 C   0  0  0  0  0  0  0  0  0  0  0  0
   33.2066   36.3202   56.8878 C   0  0  0  0  0  0  0  0  0  0  0  0
   32.4315   36.4217   57.9994 O   0  0  0  0  0  0  0  0  0  0  0  0
   32.2004   37.7356   58.5114 C   0  0  0  0  0  0  0  0  0  0  0  0
   31.3266   37.6508   59.7364 C   0  0  0  0  0  0  0  0  0  0  0  0
   31.4518   38.5920   60.7411 C   0  0  0  0  0  0  0  0  0  0  0  0
   30.6471   38.5171   61.8626 C   0  0  0  0  0  0  0  0  0  0  0  0
   29.7243   37.4949   61.9840 C   0  0  0  0  0  0  0  0  0  0  0  0
   29.6028   36.5508   60.9818 C   0  0  0  0  0  0  0  0  0  0  0  0
   30.4040   36.6287   59.8579 C   0  0  0  0  0  0  0  0  0  0  0  0
   33.4755   35.0633   56.3203 C   0  0  0  0  0  0  0  0  0  0  0  0
   32.1781   33.5322   61.0910 H   0  0  0  0  0  0  0  0  0  0  0  0
   30.7775   33.7077   60.0067 H   0  0  0  0  0  0  0  0  0  0  0  0
   31.6364   32.1519   60.1065 H   0  0  0  0  0  0  0  0  0  0  0  0
   33.5732   31.8185   55.6979 H   0  0  0  0  0  0  0  0  0  0  0  0
   35.3912   36.0041   53.7511 H   0  0  0  0  0  0  0  0  0  0  0  0
   34.9527   38.1904   54.6971 H   0  0  0  0  0  0  0  0  0  0  0  0
   33.5325   38.4179   56.7214 H   0  0  0  0  0  0  0  0  0  0  0  0
   33.1527   38.1954   58.7755 H   0  0  0  0  0  0  0  0  0  0  0  0
   31.7036   38.3394   57.7519 H   0  0  0  0  0  0  0  0  0  0  0  0
   32.1758   39.3880   60.6482 H   0  0  0  0  0  0  0  0  0  0  0  0
   30.7423   39.2546   62.6458 H   0  0  0  0  0  0  0  0  0  0  0  0
   29.0987   37.4338   62.8623 H   0  0  0  0  0  0  0  0  0  0  0  0
   28.8823   35.7519   61.0769 H   0  0  0  0  0  0  0  0  0  0  0  0
   30.3093   35.8908   59.0750 H   0  0  0  0  0  0  0  0  0  0  0  0
  1  2  1  0  0  0  0
  1 22  1  0  0  0  0
  1 23  1  0  0  0  0
  1 24  1  0  0  0  0
  2  3  1  0  0  0  0
  3  4  2  0  0  0  0
  3  5  1  0  0  0  0
  5 21  2  0  0  0  0
  5  6  1  0  0  0  0
  6  7  2  0  0  0  0
  6 25  1  0  0  0  0
  7  8  1  0  0  0  0
  8 21  1  0  0  0  0
  8  9  1  0  0  0  0
  9 10  2  0  0  0  0
  9 26  1  0  0  0  0
 10 11  1  0  0  0  0
 10 27  1  0  0  0  0
 11 12  2  0  0  0  0
 11 28  1  0  0  0  0
 12 13  1  0  0  0  0
 12 21  1  0  0  0  0
 13 14  1  0  0  0  0
 14 15  1  0  0  0  0
 14 29  1  0  0  0  0
 14 30  1  0  0  0  0
 15 20  2  0  0  0  0
 15 16  1  0  0  0  0
 16 17  2  0  0  0  0
 16 31  1  0  0  0  0
 17 18  1  0  0  0  0
 17 32  1  0  0  0  0
 18 19  2  0  0  0  0
 18 33  1  0  0  0  0
 19 20  1  0  0  0  0
 19 34  1  0  0  0  0
 20 35  1  0  0  0  0
M  END
$$$$
