ZINC000000014906      none
 OpenBabel11202420153D

 25 25  0  0  0  0  0  0  0  0999 V2000
   34.1362   34.5015   54.6007 C   0  0  0  0  0  0  0  0  0  0  0  0
   33.0558   35.3447   55.2272 C   0  0  0  0  0  0  0  0  0  0  0  0
   32.2997   35.9834   54.5241 O   0  0  0  0  0  0  0  0  0  0  0  0
   32.9222   35.3922   56.6378 C   0  0  0  0  0  0  0  0  0  0  0  0
   33.0452   36.6098   57.3102 C   0  0  0  0  0  0  0  0  0  0  0  0
   33.4311   37.7606   56.6104 C   0  0  0  0  0  0  0  0  0  0  0  0
   33.0641   39.0656   56.9126 C   0  0  0  0  0  0  0  0  0  0  0  0
   33.6763   39.8810   55.9568 C   0  0  0  0  0  0  0  0  0  0  0  0
   34.3775   39.0712   55.1256 C   0  0  0  0  0  0  0  0  0  0  0  0
   35.1758   39.5200   53.9625 N   0  0  0  0  0  0  0  0  0  0  0  0
   35.2395   40.7050   53.6884 O   0  0  0  0  0  0  0  0  0  0  0  0
   35.7691   38.7043   53.2800 O   0  0  0  0  0  0  0  0  0  0  0  0
   34.2282   37.8013   55.5202 O   0  0  0  0  0  0  0  0  0  0  0  0
   32.6638   34.2035   57.3657 C   0  0  0  0  0  0  0  0  0  0  0  0
   31.8887   33.0810   56.7250 C   0  0  0  0  0  0  0  0  0  0  0  0
   33.0669   34.0896   58.5052 O   0  0  0  0  0  0  0  0  0  0  0  0
   34.6565   33.9414   55.3776 H   0  0  0  0  0  0  0  0  0  0  0  0
   33.6885   33.8068   53.8900 H   0  0  0  0  0  0  0  0  0  0  0  0
   34.8450   35.1463   54.0811 H   0  0  0  0  0  0  0  0  0  0  0  0
   32.8429   36.6644   58.3696 H   0  0  0  0  0  0  0  0  0  0  0  0
   32.4301   39.3869   57.7258 H   0  0  0  0  0  0  0  0  0  0  0  0
   33.6043   40.9567   55.8923 H   0  0  0  0  0  0  0  0  0  0  0  0
   32.5827   32.3677   56.2806 H   0  0  0  0  0  0  0  0  0  0  0  0
   31.2855   32.5783   57.4809 H   0  0  0  0  0  0  0  0  0  0  0  0
   31.2374   33.4852   55.9501 H   0  0  0  0  0  0  0  0  0  0  0  0
  1  2  1  0  0  0  0
  1 17  1  0  0  0  0
  1 18  1  0  0  0  0
  1 19  1  0  0  0  0
  2  3  2  0  0  0  0
  2  4  1  0  0  0  0
  4  5  2  0  0  0  0
  4 14  1  0  0  0  0
  5  6  1  0  0  0  0
  5 20  1  0  0  0  0
  6 13  1  0  0  0  0
  6  7  2  0  0  0  0
  7  8  1  0  0  0  0
  7 21  1  0  0  0  0
  8  9  2  0  0  0  0
  8 22  1  0  0  0  0
  9 10  1  0  0  0  0
  9 13  1  0  0  0  0
 10 11  2  0  0  0  0
 10 12  2  0  0  0  0
 14 15  1  0  0  0  0
 14 16  2  0  0  0  0
 15 23  1  0  0  0  0
 15 24  1  0  0  0  0
 15 25  1  0  0  0  0
M  END
$$$$
