ZINC000000033748      none
 OpenBabel11202420153D

 21 21  0  0  0  0  0  0  0  0999 V2000
   32.2890   37.0810   63.0841 C   0  0  0  0  0  0  0  0  0  0  0  0
   32.7582   37.0167   61.7114 O   0  0  0  0  0  0  0  0  0  0  0  0
   31.9111   36.4998   60.7986 C   0  0  0  0  0  0  0  0  0  0  0  0
   30.8104   36.1135   61.1410 O   0  0  0  0  0  0  0  0  0  0  0  0
   32.3205   36.3977   59.3913 C   0  0  0  0  0  0  0  0  0  0  0  0
   32.4396   34.9000   58.4780 S   0  0  0  0  0  0  0  0  0  0  0  0
   32.9563   35.7731   57.0421 C   0  0  0  0  0  0  0  0  0  0  0  0
   33.2783   35.1570   55.7476 C   0  0  0  0  0  0  0  0  0  0  0  0
   34.1693   34.3337   55.6713 O   0  0  0  0  0  0  0  0  0  0  0  0
   32.5853   35.5048   54.6445 O   0  0  0  0  0  0  0  0  0  0  0  0
   32.9578   34.8558   53.4002 C   0  0  0  0  0  0  0  0  0  0  0  0
   33.0191   37.1121   57.3139 C   0  0  0  0  0  0  0  0  0  0  0  0
   33.5004   38.2869   56.1299 Cl  0  0  0  0  0  0  0  0  0  0  0  0
   32.6722   37.4528   58.5951 C   0  0  0  0  0  0  0  0  0  0  0  0
   32.6783   39.0934   59.1626 Cl  0  0  0  0  0  0  0  0  0  0  0  0
   33.0654   37.5161   63.7134 H   0  0  0  0  0  0  0  0  0  0  0  0
   31.3926   37.6993   63.1332 H   0  0  0  0  0  0  0  0  0  0  0  0
   32.0569   36.0759   63.4362 H   0  0  0  0  0  0  0  0  0  0  0  0
   34.0007   35.0772   53.1730 H   0  0  0  0  0  0  0  0  0  0  0  0
   32.8284   33.7781   53.4996 H   0  0  0  0  0  0  0  0  0  0  0  0
   32.3240   35.2249   52.5940 H   0  0  0  0  0  0  0  0  0  0  0  0
  1  2  1  0  0  0  0
  1 16  1  0  0  0  0
  1 17  1  0  0  0  0
  1 18  1  0  0  0  0
  2  3  1  0  0  0  0
  3  4  2  0  0  0  0
  3  5  1  0  0  0  0
  5 14  2  0  0  0  0
  5  6  1  0  0  0  0
  6  7  1  0  0  0  0
  7  8  1  0  0  0  0
  7 12  2  0  0  0  0
  8  9  2  0  0  0  0
  8 10  1  0  0  0  0
 10 11  1  0  0  0  0
 11 19  1  0  0  0  0
 11 20  1  0  0  0  0
 11 21  1  0  0  0  0
 12 13  1  0  0  0  0
 12 14  1  0  0  0  0
 14 15  1  0  0  0  0
M  END
$$$$
