ZINC000000032841      none
 OpenBabel11202420153D

 28 29  0  0  0  0  0  0  0  0999 V2000
   33.2965   40.8080   58.9640 N   0  0  0  0  0  0  0  0  0  0  0  0
   33.1943   39.6347   58.2437 C   0  0  0  0  0  0  0  0  0  0  0  0
   33.5651   39.6038   56.9065 C   0  0  0  0  0  0  0  0  0  0  0  0
   33.4440   38.4013   56.2029 C   0  0  0  0  0  0  0  0  0  0  0  0
   33.7554   38.3376   55.0240 O   0  0  0  0  0  0  0  0  0  0  0  0
   32.9822   37.3111   56.8504 N   0  0  0  0  0  0  0  0  0  0  0  0
   32.8955   36.4682   56.3782 H   0  0  0  0  0  0  0  0  0  0  0  0
   32.6372   37.3921   58.1658 C   0  0  0  0  0  0  0  0  0  0  0  0
   32.0367   35.9554   58.9906 S   0  0  0  0  0  0  0  0  0  0  0  0
   31.7607   36.6191   60.5993 C   0  0  0  0  0  0  0  0  0  0  0  0
   30.5340   36.5953   61.1309 C   0  0  0  0  0  0  0  0  0  0  0  0
   30.3028   37.1508   62.4775 C   0  0  0  0  0  0  0  0  0  0  0  0
   29.8028   36.3362   63.4963 C   0  0  0  0  0  0  0  0  0  0  0  0
   29.5955   36.8608   64.7551 C   0  0  0  0  0  0  0  0  0  0  0  0
   29.8693   38.1938   65.0064 C   0  0  0  0  0  0  0  0  0  0  0  0
   30.3589   39.0080   64.0005 C   0  0  0  0  0  0  0  0  0  0  0  0
   30.5774   38.4953   62.7387 C   0  0  0  0  0  0  0  0  0  0  0  0
   32.7429   38.5221   58.8333 N   0  0  0  0  0  0  0  0  0  0  0  0
   33.0407   40.8267   59.8995 H   0  0  0  0  0  0  0  0  0  0  0  0
   33.6241   41.6138   58.5346 H   0  0  0  0  0  0  0  0  0  0  0  0
   33.9360   40.4925   56.4175 H   0  0  0  0  0  0  0  0  0  0  0  0
   32.5822   37.0451   61.1560 H   0  0  0  0  0  0  0  0  0  0  0  0
   29.7124   36.1694   60.5741 H   0  0  0  0  0  0  0  0  0  0  0  0
   29.5841   35.2969   63.3003 H   0  0  0  0  0  0  0  0  0  0  0  0
   29.2141   36.2309   65.5451 H   0  0  0  0  0  0  0  0  0  0  0  0
   29.7004   38.6003   65.9926 H   0  0  0  0  0  0  0  0  0  0  0  0
   30.5707   40.0473   64.2038 H   0  0  0  0  0  0  0  0  0  0  0  0
   30.9602   39.1318   61.9547 H   0  0  0  0  0  0  0  0  0  0  0  0
  1  2  1  0  0  0  0
  1 19  1  0  0  0  0
  1 20  1  0  0  0  0
  2 18  1  0  0  0  0
  2  3  2  0  0  0  0
  3  4  1  0  0  0  0
  3 21  1  0  0  0  0
  4  5  2  0  0  0  0
  4  6  1  0  0  0  0
  6  7  1  0  0  0  0
  6  8  1  0  0  0  0
  8  9  1  0  0  0  0
  8 18  2  0  0  0  0
  9 10  1  0  0  0  0
 10 11  2  0  0  0  0
 10 22  1  0  0  0  0
 11 12  1  0  0  0  0
 11 23  1  0  0  0  0
 12 17  2  0  0  0  0
 12 13  1  0  0  0  0
 13 14  2  0  0  0  0
 13 24  1  0  0  0  0
 14 15  1  0  0  0  0
 14 25  1  0  0  0  0
 15 16  2  0  0  0  0
 15 26  1  0  0  0  0
 16 17  1  0  0  0  0
 16 27  1  0  0  0  0
 17 28  1  0  0  0  0
M  END
$$$$
