ZINC000000036406      none
 OpenBabel11202420153D

 45 47  0  0  0  0  0  0  0  0999 V2000
   27.4054   31.4261   66.2173 C   0  0  0  0  0  0  0  0  0  0  0  0
   28.0934   32.6891   65.7671 C   0  0  0  0  0  0  0  0  0  0  0  0
   29.2047   32.6166   64.9483 C   0  0  0  0  0  0  0  0  0  0  0  0
   29.8355   33.7751   64.5349 C   0  0  0  0  0  0  0  0  0  0  0  0
   29.3552   35.0061   64.9409 C   0  0  0  0  0  0  0  0  0  0  0  0
   30.1595   36.4828   64.4146 S   0  0  0  0  0  0  0  0  0  0  0  0
   31.2457   36.6882   65.3074 O   0  0  0  0  0  0  0  0  0  0  0  0
   29.1348   37.4443   64.2032 O   0  0  0  0  0  0  0  0  0  0  0  0
   30.8261   36.1756   62.9302 N   0  0  0  0  0  0  0  0  0  0  0  0
   32.2762   36.2945   62.7147 C   0  0  0  0  0  0  0  0  0  0  0  0
   32.5148   37.1805   61.4873 C   0  0  0  0  0  0  0  0  0  0  0  0
   31.7592   36.6455   60.3468 N   0  0  0  0  0  0  0  0  0  0  0  0
   32.0780   37.3282   59.1707 C   0  0  0  0  0  0  0  0  0  0  0  0
   31.8556   38.6964   59.0778 C   0  0  0  0  0  0  0  0  0  0  0  0
   32.1666   39.3672   57.9116 C   0  0  0  0  0  0  0  0  0  0  0  0
   32.6989   38.6785   56.8367 C   0  0  0  0  0  0  0  0  0  0  0  0
   32.9215   37.3169   56.9258 C   0  0  0  0  0  0  0  0  0  0  0  0
   32.6126   36.6397   58.0893 C   0  0  0  0  0  0  0  0  0  0  0  0
   32.8550   35.1554   58.1855 C   0  0  0  0  0  0  0  0  0  0  0  0
   30.3129   36.6825   60.6015 C   0  0  0  0  0  0  0  0  0  0  0  0
   29.9840   35.7761   61.7924 C   0  0  0  0  0  0  0  0  0  0  0  0
   28.2473   35.0785   65.7644 C   0  0  0  0  0  0  0  0  0  0  0  0
   27.6134   33.9201   66.1734 C   0  0  0  0  0  0  0  0  0  0  0  0
   27.8473   31.0856   67.1538 H   0  0  0  0  0  0  0  0  0  0  0  0
   26.3442   31.6241   66.3670 H   0  0  0  0  0  0  0  0  0  0  0  0
   27.5274   30.6550   65.4566 H   0  0  0  0  0  0  0  0  0  0  0  0
   29.5799   31.6547   64.6310 H   0  0  0  0  0  0  0  0  0  0  0  0
   30.7037   33.7184   63.8953 H   0  0  0  0  0  0  0  0  0  0  0  0
   32.7029   35.3066   62.5416 H   0  0  0  0  0  0  0  0  0  0  0  0
   32.7435   36.7470   63.5893 H   0  0  0  0  0  0  0  0  0  0  0  0
   33.5779   37.1902   61.2469 H   0  0  0  0  0  0  0  0  0  0  0  0
   32.1810   38.1958   61.7007 H   0  0  0  0  0  0  0  0  0  0  0  0
   31.4397   39.2348   59.9165 H   0  0  0  0  0  0  0  0  0  0  0  0
   31.9937   40.4308   57.8386 H   0  0  0  0  0  0  0  0  0  0  0  0
   32.9416   39.2057   55.9260 H   0  0  0  0  0  0  0  0  0  0  0  0
   33.3375   36.7822   56.0848 H   0  0  0  0  0  0  0  0  0  0  0  0
   31.9658   34.6198   57.8532 H   0  0  0  0  0  0  0  0  0  0  0  0
   33.7004   34.8836   57.5532 H   0  0  0  0  0  0  0  0  0  0  0  0
   33.0745   34.8892   59.2194 H   0  0  0  0  0  0  0  0  0  0  0  0
   30.0093   37.7046   60.8275 H   0  0  0  0  0  0  0  0  0  0  0  0
   29.7791   36.3309   59.7185 H   0  0  0  0  0  0  0  0  0  0  0  0
   30.1904   34.7383   61.5307 H   0  0  0  0  0  0  0  0  0  0  0  0
   28.9328   35.8876   62.0581 H   0  0  0  0  0  0  0  0  0  0  0  0
   27.8746   36.0401   66.0852 H   0  0  0  0  0  0  0  0  0  0  0  0
   26.7453   33.9766   66.8135 H   0  0  0  0  0  0  0  0  0  0  0  0
  1  2  1  0  0  0  0
  1 24  1  0  0  0  0
  1 25  1  0  0  0  0
  1 26  1  0  0  0  0
  2 23  2  0  0  0  0
  2  3  1  0  0  0  0
  3  4  2  0  0  0  0
  3 27  1  0  0  0  0
  4  5  1  0  0  0  0
  4 28  1  0  0  0  0
  5  6  1  0  0  0  0
  5 22  2  0  0  0  0
  6  7  2  0  0  0  0
  6  8  2  0  0  0  0
  6  9  1  0  0  0  0
  9 21  1  0  0  0  0
  9 10  1  0  0  0  0
 10 11  1  0  0  0  0
 10 29  1  0  0  0  0
 10 30  1  0  0  0  0
 11 12  1  0  0  0  0
 11 31  1  0  0  0  0
 11 32  1  0  0  0  0
 12 13  1  0  0  0  0
 12 20  1  0  0  0  0
 13 18  2  0  0  0  0
 13 14  1  0  0  0  0
 14 15  2  0  0  0  0
 14 33  1  0  0  0  0
 15 16  1  0  0  0  0
 15 34  1  0  0  0  0
 16 17  2  0  0  0  0
 16 35  1  0  0  0  0
 17 18  1  0  0  0  0
 17 36  1  0  0  0  0
 18 19  1  0  0  0  0
 19 37  1  0  0  0  0
 19 38  1  0  0  0  0
 19 39  1  0  0  0  0
 20 21  1  0  0  0  0
 20 40  1  0  0  0  0
 20 41  1  0  0  0  0
 21 42  1  0  0  0  0
 21 43  1  0  0  0  0
 22 23  1  0  0  0  0
 22 44  1  0  0  0  0
 23 45  1  0  0  0  0
M  END
$$$$
