ZINC000000035828      none
 OpenBabel11202420153D

 24 25  0  0  0  0  0  0  0  0999 V2000
   34.4864   31.0483   53.7341 O   0  0  0  0  0  0  0  0  0  0  0  0
   35.0751   32.0676   54.0473 N   0  0  0  0  0  0  0  0  0  0  0  0
   36.2241   32.0090   54.4470 O   0  0  0  0  0  0  0  0  0  0  0  0
   34.3939   33.3775   53.9421 C   0  0  0  0  0  0  0  0  0  0  0  0
   33.0832   33.5872   53.5009 C   0  0  0  0  0  0  0  0  0  0  0  0
   32.8326   34.9158   53.5565 C   0  0  0  0  0  0  0  0  0  0  0  0
   33.9484   35.5262   54.0076 N   0  0  0  0  0  0  0  0  0  0  0  0
   34.1184   36.9662   54.2169 C   0  0  0  0  0  0  0  0  0  0  0  0
   33.7128   37.3204   55.6245 C   0  0  0  0  0  0  0  0  0  0  0  0
   33.7876   38.6318   56.0558 C   0  0  0  0  0  0  0  0  0  0  0  0
   33.4161   38.9572   57.3467 C   0  0  0  0  0  0  0  0  0  0  0  0
   32.9745   37.9694   58.2089 C   0  0  0  0  0  0  0  0  0  0  0  0
   32.5153   38.3762   59.8329 Cl  0  0  0  0  0  0  0  0  0  0  0  0
   32.8936   36.6583   57.7746 C   0  0  0  0  0  0  0  0  0  0  0  0
   33.2657   36.3341   56.4836 C   0  0  0  0  0  0  0  0  0  0  0  0
   34.9135   34.5392   54.2461 N   0  0  0  0  0  0  0  0  0  0  0  0
   32.3917   32.8232   53.1774 H   0  0  0  0  0  0  0  0  0  0  0  0
   31.9066   35.4010   53.2856 H   0  0  0  0  0  0  0  0  0  0  0  0
   33.4935   37.5123   53.5104 H   0  0  0  0  0  0  0  0  0  0  0  0
   35.1631   37.2352   54.0613 H   0  0  0  0  0  0  0  0  0  0  0  0
   34.1366   39.4020   55.3839 H   0  0  0  0  0  0  0  0  0  0  0  0
   33.4750   39.9816   57.6836 H   0  0  0  0  0  0  0  0  0  0  0  0
   32.5443   35.8876   58.4458 H   0  0  0  0  0  0  0  0  0  0  0  0
   33.2075   35.3098   56.1461 H   0  0  0  0  0  0  0  0  0  0  0  0
  1  2  2  0  0  0  0
  2  3  2  0  0  0  0
  2  4  1  0  0  0  0
  4 16  2  0  0  0  0
  4  5  1  0  0  0  0
  5  6  2  0  0  0  0
  5 17  1  0  0  0  0
  6  7  1  0  0  0  0
  6 18  1  0  0  0  0
  7  8  1  0  0  0  0
  7 16  1  0  0  0  0
  8  9  1  0  0  0  0
  8 19  1  0  0  0  0
  8 20  1  0  0  0  0
  9 15  2  0  0  0  0
  9 10  1  0  0  0  0
 10 11  2  0  0  0  0
 10 21  1  0  0  0  0
 11 12  1  0  0  0  0
 11 22  1  0  0  0  0
 12 13  1  0  0  0  0
 12 14  2  0  0  0  0
 14 15  1  0  0  0  0
 14 23  1  0  0  0  0
 15 24  1  0  0  0  0
M  END
$$$$
