ZINC000000051214      none
 OpenBabel11202420153D

 39 42  0  0  1  0  0  0  0  0999 V2000
   28.5790   39.1373   63.7772 O   0  0  0  0  0  0  0  0  0  0  0  0
   29.3384   38.7969   64.6641 C   0  0  0  0  0  0  0  0  0  0  0  0
   29.7111   39.7519   65.7212 C   0  0  0  0  0  0  0  0  0  0  0  0
   28.7448   40.3054   66.5434 C   0  0  0  0  0  0  0  0  0  0  0  0
   29.1476   41.2257   67.5440 C   0  0  0  0  0  0  0  0  0  0  0  0
   28.1934   41.8105   68.3903 C   0  0  0  0  0  0  0  0  0  0  0  0
   28.5885   42.6953   69.3516 C   0  0  0  0  0  0  0  0  0  0  0  0
   29.9297   43.0219   69.4992 C   0  0  0  0  0  0  0  0  0  0  0  0
   30.8842   42.4594   68.6787 C   0  0  0  0  0  0  0  0  0  0  0  0
   30.5069   41.5553   67.6916 C   0  0  0  0  0  0  0  0  0  0  0  0
   31.4436   41.0054   66.8897 O   0  0  0  0  0  0  0  0  0  0  0  0
   31.1143   40.1287   65.9264 C   0  0  0  0  0  0  0  0  0  0  0  0
   31.9809   39.6498   65.2193 O   0  0  0  0  0  0  0  0  0  0  0  0
   29.8388   37.5454   64.6794 N   0  0  0  0  0  0  0  0  0  0  0  0
   30.7547   37.0789   65.7181 C   0  0  0  0  0  0  0  0  0  0  0  0
   30.5434   35.5530   65.9452 C   0  0  0  0  0  0  0  0  0  0  0  0
   30.3363   35.0061   64.1981 S   0  0  0  0  0  0  0  0  0  0  0  0
   29.5087   36.5498   63.6488 C   0  0  2  0  0  0  0  0  0  0  0  0
   28.4298   36.4044   63.5943 H   0  0  0  0  0  0  0  0  0  0  0  0
   30.0462   36.9842   62.3096 C   0  0  0  0  0  0  0  0  0  0  0  0
   29.3976   36.6062   61.1488 C   0  0  0  0  0  0  0  0  0  0  0  0
   29.8883   37.0083   59.9206 C   0  0  0  0  0  0  0  0  0  0  0  0
   31.0326   37.7808   59.8528 C   0  0  0  0  0  0  0  0  0  0  0  0
   31.6842   38.1544   61.0133 C   0  0  0  0  0  0  0  0  0  0  0  0
   31.1911   37.7559   62.2417 C   0  0  0  0  0  0  0  0  0  0  0  0
   27.7037   40.0455   66.4215 H   0  0  0  0  0  0  0  0  0  0  0  0
   27.1483   41.5608   68.2815 H   0  0  0  0  0  0  0  0  0  0  0  0
   27.8526   43.1440   70.0023 H   0  0  0  0  0  0  0  0  0  0  0  0
   30.2282   43.7235   70.2640 H   0  0  0  0  0  0  0  0  0  0  0  0
   31.9246   42.7212   68.8022 H   0  0  0  0  0  0  0  0  0  0  0  0
   31.7826   37.2642   65.4062 H   0  0  0  0  0  0  0  0  0  0  0  0
   30.5552   37.6150   66.6461 H   0  0  0  0  0  0  0  0  0  0  0  0
   29.6459   35.3562   66.5317 H   0  0  0  0  0  0  0  0  0  0  0  0
   31.4206   35.0960   66.4028 H   0  0  0  0  0  0  0  0  0  0  0  0
   28.5058   35.9995   61.2017 H   0  0  0  0  0  0  0  0  0  0  0  0
   29.3792   36.7166   59.0140 H   0  0  0  0  0  0  0  0  0  0  0  0
   31.4175   38.0927   58.8931 H   0  0  0  0  0  0  0  0  0  0  0  0
   32.5782   38.7579   60.9603 H   0  0  0  0  0  0  0  0  0  0  0  0
   31.7001   38.0479   63.1484 H   0  0  0  0  0  0  0  0  0  0  0  0
  1  2  2  0  0  0  0
  2  3  1  0  0  0  0
  2 14  1  0  0  0  0
  3 12  1  0  0  0  0
  3  4  2  0  0  0  0
  4  5  1  0  0  0  0
  4 26  1  0  0  0  0
  5 10  2  0  0  0  0
  5  6  1  0  0  0  0
  6  7  2  0  0  0  0
  6 27  1  0  0  0  0
  7  8  1  0  0  0  0
  7 28  1  0  0  0  0
  8  9  2  0  0  0  0
  8 29  1  0  0  0  0
  9 10  1  0  0  0  0
  9 30  1  0  0  0  0
 10 11  1  0  0  0  0
 11 12  1  0  0  0  0
 12 13  2  0  0  0  0
 14 18  1  0  0  0  0
 14 15  1  0  0  0  0
 15 16  1  0  0  0  0
 15 31  1  0  0  0  0
 15 32  1  0  0  0  0
 16 17  1  0  0  0  0
 16 33  1  0  0  0  0
 16 34  1  0  0  0  0
 17 18  1  0  0  0  0
 18 19  1  6  0  0  0
 18 20  1  0  0  0  0
 20 25  2  0  0  0  0
 20 21  1  0  0  0  0
 21 22  2  0  0  0  0
 21 35  1  0  0  0  0
 22 23  1  0  0  0  0
 22 36  1  0  0  0  0
 23 24  2  0  0  0  0
 23 37  1  0  0  0  0
 24 25  1  0  0  0  0
 24 38  1  0  0  0  0
 25 39  1  0  0  0  0
M  END
$$$$
