ZINC000000015121      none
 OpenBabel11202420153D

 42 43  0  0  1  0  0  0  0  0999 V2000
   32.7206   33.7369   59.4750 O   0  0  0  0  0  0  0  0  0  0  0  0
   32.2041   34.3449   58.5614 C   0  0  0  0  0  0  0  0  0  0  0  0
   32.2735   33.7988   57.1585 C   0  0  0  0  0  0  0  0  0  0  0  0
   32.9899   34.8042   56.2547 C   0  0  0  0  0  0  0  0  0  0  0  0
   33.0604   34.2498   54.8304 C   0  0  0  0  0  0  0  0  0  0  0  0
   33.7662   35.2400   53.9404 C   0  0  0  0  0  0  0  0  0  0  0  0
   33.4487   35.3106   52.5968 C   0  0  0  0  0  0  0  0  0  0  0  0
   34.0924   36.2225   51.7813 C   0  0  0  0  0  0  0  0  0  0  0  0
   35.0609   37.0564   52.3070 C   0  0  0  0  0  0  0  0  0  0  0  0
   35.3828   36.9820   53.6497 C   0  0  0  0  0  0  0  0  0  0  0  0
   34.7351   36.0740   54.4663 C   0  0  0  0  0  0  0  0  0  0  0  0
   31.5682   35.5087   58.8008 N   0  0  0  0  0  0  0  0  0  0  0  0
   31.5007   36.0395   60.1647 C   0  0  2  0  0  0  0  0  0  0  0  0
   32.0152   35.3650   60.8491 H   0  0  0  0  0  0  0  0  0  0  0  0
   30.0371   36.1841   60.5884 C   0  0  0  0  0  0  0  0  0  0  0  0
   29.9089   36.1358   62.1001 C   0  0  0  0  0  0  0  0  0  0  0  0
   30.5371   37.3235   62.8060 C   0  0  0  0  0  0  0  0  0  0  0  0
   32.0583   37.3110   62.6440 C   0  0  0  0  0  0  0  0  0  0  0  0
   32.4034   37.9895   61.3842 N   0  0  0  0  0  0  0  0  0  0  0  0
   32.1517   37.4058   60.2117 C   0  0  0  0  0  0  0  0  0  0  0  0
   32.4447   37.9715   59.1796 O   0  0  0  0  0  0  0  0  0  0  0  0
   32.8229   32.8574   57.1618 H   0  0  0  0  0  0  0  0  0  0  0  0
   31.2639   33.6291   56.7843 H   0  0  0  0  0  0  0  0  0  0  0  0
   32.4405   35.7456   56.2513 H   0  0  0  0  0  0  0  0  0  0  0  0
   33.9995   34.9740   56.6288 H   0  0  0  0  0  0  0  0  0  0  0  0
   33.6096   33.3083   54.8337 H   0  0  0  0  0  0  0  0  0  0  0  0
   32.0508   34.0800   54.4562 H   0  0  0  0  0  0  0  0  0  0  0  0
   32.6949   34.6559   52.1850 H   0  0  0  0  0  0  0  0  0  0  0  0
   33.8410   36.2809   50.7327 H   0  0  0  0  0  0  0  0  0  0  0  0
   35.5668   37.7663   51.6693 H   0  0  0  0  0  0  0  0  0  0  0  0
   36.1398   37.6336   54.0606 H   0  0  0  0  0  0  0  0  0  0  0  0
   34.9863   36.0160   55.5150 H   0  0  0  0  0  0  0  0  0  0  0  0
   31.1551   35.9950   58.0702 H   0  0  0  0  0  0  0  0  0  0  0  0
   29.6506   37.1362   60.2248 H   0  0  0  0  0  0  0  0  0  0  0  0
   29.4556   35.3713   60.1537 H   0  0  0  0  0  0  0  0  0  0  0  0
   30.3848   35.2244   62.4619 H   0  0  0  0  0  0  0  0  0  0  0  0
   28.8504   36.0978   62.3576 H   0  0  0  0  0  0  0  0  0  0  0  0
   30.2893   37.2821   63.8667 H   0  0  0  0  0  0  0  0  0  0  0  0
   30.1390   38.2448   62.3807 H   0  0  0  0  0  0  0  0  0  0  0  0
   32.5195   37.8360   63.4804 H   0  0  0  0  0  0  0  0  0  0  0  0
   32.4144   36.2813   62.6142 H   0  0  0  0  0  0  0  0  0  0  0  0
   32.8163   38.8669   61.4069 H   0  0  0  0  0  0  0  0  0  0  0  0
  1  2  2  0  0  0  0
  2  3  1  0  0  0  0
  2 12  1  0  0  0  0
  3  4  1  0  0  0  0
  3 22  1  0  0  0  0
  3 23  1  0  0  0  0
  4  5  1  0  0  0  0
  4 24  1  0  0  0  0
  4 25  1  0  0  0  0
  5  6  1  0  0  0  0
  5 26  1  0  0  0  0
  5 27  1  0  0  0  0
  6 11  2  0  0  0  0
  6  7  1  0  0  0  0
  7  8  2  0  0  0  0
  7 28  1  0  0  0  0
  8  9  1  0  0  0  0
  8 29  1  0  0  0  0
  9 10  2  0  0  0  0
  9 30  1  0  0  0  0
 10 11  1  0  0  0  0
 10 31  1  0  0  0  0
 11 32  1  0  0  0  0
 12 13  1  0  0  0  0
 12 33  1  0  0  0  0
 13 14  1  1  0  0  0
 13 20  1  0  0  0  0
 13 15  1  0  0  0  0
 15 16  1  0  0  0  0
 15 34  1  0  0  0  0
 15 35  1  0  0  0  0
 16 17  1  0  0  0  0
 16 36  1  0  0  0  0
 16 37  1  0  0  0  0
 17 18  1  0  0  0  0
 17 38  1  0  0  0  0
 17 39  1  0  0  0  0
 18 19  1  0  0  0  0
 18 40  1  0  0  0  0
 18 41  1  0  0  0  0
 19 20  1  0  0  0  0
 19 42  1  0  0  0  0
 20 21  2  0  0  0  0
M  END
$$$$
