ZINC000000029974      none
 OpenBabel11202420163D

 36 37  0  0  0  0  0  0  0  0999 V2000
   32.2252   36.3889   63.7775 C   0  0  0  0  0  0  0  0  0  0  0  0
   30.7854   35.9802   63.4599 C   0  0  0  0  0  0  0  0  0  0  0  0
   30.7822   35.0531   62.3725 O   0  0  0  0  0  0  0  0  0  0  0  0
   31.3078   35.4808   61.1966 C   0  0  0  0  0  0  0  0  0  0  0  0
   31.9151   34.5723   60.3376 C   0  0  0  0  0  0  0  0  0  0  0  0
   32.4445   35.0014   59.1411 C   0  0  0  0  0  0  0  0  0  0  0  0
   32.3811   36.3541   58.7964 C   0  0  0  0  0  0  0  0  0  0  0  0
   32.9536   36.8194   57.5179 C   0  0  0  0  0  0  0  0  0  0  0  0
   33.3500   37.9638   57.4101 O   0  0  0  0  0  0  0  0  0  0  0  0
   33.0369   35.9758   56.4701 N   0  0  0  0  0  0  0  0  0  0  0  0
   33.6053   36.4377   55.2013 C   0  0  0  0  0  0  0  0  0  0  0  0
   33.5833   35.3106   54.2012 C   0  0  0  0  0  0  0  0  0  0  0  0
   33.4555   35.5857   52.8525 C   0  0  0  0  0  0  0  0  0  0  0  0
   33.4400   34.5521   51.9348 C   0  0  0  0  0  0  0  0  0  0  0  0
   33.5421   33.2428   52.3665 C   0  0  0  0  0  0  0  0  0  0  0  0
   33.6647   32.9676   53.7156 C   0  0  0  0  0  0  0  0  0  0  0  0
   33.6853   34.0014   54.6330 C   0  0  0  0  0  0  0  0  0  0  0  0
   31.7748   37.2651   59.6653 C   0  0  0  0  0  0  0  0  0  0  0  0
   31.2424   36.8271   60.8572 C   0  0  0  0  0  0  0  0  0  0  0  0
   32.2276   37.0961   64.6069 H   0  0  0  0  0  0  0  0  0  0  0  0
   32.8015   35.5054   64.0517 H   0  0  0  0  0  0  0  0  0  0  0  0
   32.6721   36.8564   62.9002 H   0  0  0  0  0  0  0  0  0  0  0  0
   30.2090   36.8639   63.1857 H   0  0  0  0  0  0  0  0  0  0  0  0
   30.3384   35.5127   64.3373 H   0  0  0  0  0  0  0  0  0  0  0  0
   31.9678   33.5278   60.6071 H   0  0  0  0  0  0  0  0  0  0  0  0
   32.9122   34.2943   58.4721 H   0  0  0  0  0  0  0  0  0  0  0  0
   32.7207   35.0629   56.5562 H   0  0  0  0  0  0  0  0  0  0  0  0
   33.0157   37.2720   54.8215 H   0  0  0  0  0  0  0  0  0  0  0  0
   34.6336   36.7622   55.3605 H   0  0  0  0  0  0  0  0  0  0  0  0
   33.3711   36.6083   52.5156 H   0  0  0  0  0  0  0  0  0  0  0  0
   33.3439   34.7671   50.8808 H   0  0  0  0  0  0  0  0  0  0  0  0
   33.5257   32.4350   51.6498 H   0  0  0  0  0  0  0  0  0  0  0  0
   33.7442   31.9446   54.0528 H   0  0  0  0  0  0  0  0  0  0  0  0
   33.7808   33.7864   55.6870 H   0  0  0  0  0  0  0  0  0  0  0  0
   31.7242   38.3115   59.4025 H   0  0  0  0  0  0  0  0  0  0  0  0
   30.7736   37.5306   61.5293 H   0  0  0  0  0  0  0  0  0  0  0  0
  1  2  1  0  0  0  0
  1 20  1  0  0  0  0
  1 21  1  0  0  0  0
  1 22  1  0  0  0  0
  2  3  1  0  0  0  0
  2 23  1  0  0  0  0
  2 24  1  0  0  0  0
  3  4  1  0  0  0  0
  4 19  2  0  0  0  0
  4  5  1  0  0  0  0
  5  6  2  0  0  0  0
  5 25  1  0  0  0  0
  6  7  1  0  0  0  0
  6 26  1  0  0  0  0
  7  8  1  0  0  0  0
  7 18  2  0  0  0  0
  8  9  2  0  0  0  0
  8 10  1  0  0  0  0
 10 11  1  0  0  0  0
 10 27  1  0  0  0  0
 11 12  1  0  0  0  0
 11 28  1  0  0  0  0
 11 29  1  0  0  0  0
 12 17  2  0  0  0  0
 12 13  1  0  0  0  0
 13 14  2  0  0  0  0
 13 30  1  0  0  0  0
 14 15  1  0  0  0  0
 14 31  1  0  0  0  0
 15 16  2  0  0  0  0
 15 32  1  0  0  0  0
 16 17  1  0  0  0  0
 16 33  1  0  0  0  0
 17 34  1  0  0  0  0
 18 19  1  0  0  0  0
 18 35  1  0  0  0  0
 19 36  1  0  0  0  0
M  END
$$$$
