ZINC000000001654      none
 OpenBabel11202420153D

 38 40  0  0  1  0  0  0  0  0999 V2000
   30.0337   32.7927   64.0213 C   0  0  0  0  0  0  0  0  0  0  0  0
   29.9484   34.1959   63.7654 O   0  0  0  0  0  0  0  0  0  0  0  0
   30.9697   34.9661   64.4027 C   0  0  2  0  0  0  0  0  0  0  0  0
   31.9196   34.4346   64.3466 H   0  0  0  0  0  0  0  0  0  0  0  0
   30.5974   35.2047   65.8682 C   0  0  0  0  0  0  0  0  0  0  0  0
   31.5091   36.2498   66.4597 C   0  0  0  0  0  0  0  0  0  0  0  0
   31.6005   36.3503   67.8435 C   0  0  0  0  0  0  0  0  0  0  0  0
   30.8775   35.5123   68.6319 O   0  0  0  0  0  0  0  0  0  0  0  0
   32.4250   37.3013   68.4217 C   0  0  0  0  0  0  0  0  0  0  0  0
   33.1626   38.1569   67.6171 C   0  0  0  0  0  0  0  0  0  0  0  0
   33.9717   39.0922   68.1804 O   0  0  0  0  0  0  0  0  0  0  0  0
   33.0756   38.0547   66.2387 C   0  0  0  0  0  0  0  0  0  0  0  0
   32.2467   37.1011   65.6567 C   0  0  0  0  0  0  0  0  0  0  0  0
   32.1922   37.0325   64.3009 O   0  0  0  0  0  0  0  0  0  0  0  0
   31.0982   36.3294   63.7109 C   0  0  1  0  0  0  0  0  0  0  0  0
   30.1790   36.8988   63.8483 H   0  0  0  0  0  0  0  0  0  0  0  0
   31.3563   36.1297   62.2397 C   0  0  0  0  0  0  0  0  0  0  0  0
   30.9131   37.0698   61.3279 C   0  0  0  0  0  0  0  0  0  0  0  0
   31.1517   36.8937   59.9776 C   0  0  0  0  0  0  0  0  0  0  0  0
   31.8272   35.7678   59.5346 C   0  0  0  0  0  0  0  0  0  0  0  0
   32.0586   35.5907   58.2062 O   0  0  0  0  0  0  0  0  0  0  0  0
   32.2687   34.8191   60.4518 C   0  0  0  0  0  0  0  0  0  0  0  0
   32.9316   33.7123   60.0219 O   0  0  0  0  0  0  0  0  0  0  0  0
   32.0308   35.0043   61.8043 C   0  0  0  0  0  0  0  0  0  0  0  0
   29.2243   32.2789   63.5028 H   0  0  0  0  0  0  0  0  0  0  0  0
   30.9917   32.4156   63.6631 H   0  0  0  0  0  0  0  0  0  0  0  0
   29.9504   32.6131   65.0932 H   0  0  0  0  0  0  0  0  0  0  0  0
   30.7030   34.2739   66.4254 H   0  0  0  0  0  0  0  0  0  0  0  0
   29.5648   35.5483   65.9282 H   0  0  0  0  0  0  0  0  0  0  0  0
   30.3313   34.8833   68.1405 H   0  0  0  0  0  0  0  0  0  0  0  0
   32.4930   37.3766   69.4970 H   0  0  0  0  0  0  0  0  0  0  0  0
   33.9675   39.0851   69.1473 H   0  0  0  0  0  0  0  0  0  0  0  0
   33.6501   38.7216   65.6129 H   0  0  0  0  0  0  0  0  0  0  0  0
   30.3830   37.9456   61.6716 H   0  0  0  0  0  0  0  0  0  0  0  0
   30.8080   37.6315   59.2678 H   0  0  0  0  0  0  0  0  0  0  0  0
   31.7150   36.3023   57.6488 H   0  0  0  0  0  0  0  0  0  0  0  0
   33.0489   33.6719   59.0629 H   0  0  0  0  0  0  0  0  0  0  0  0
   32.3728   34.2697   62.5183 H   0  0  0  0  0  0  0  0  0  0  0  0
  1  2  1  0  0  0  0
  1 25  1  0  0  0  0
  1 26  1  0  0  0  0
  1 27  1  0  0  0  0
  2  3  1  0  0  0  0
  3  4  1  6  0  0  0
  3 15  1  0  0  0  0
  3  5  1  0  0  0  0
  5  6  1  0  0  0  0
  5 28  1  0  0  0  0
  5 29  1  0  0  0  0
  6 13  2  0  0  0  0
  6  7  1  0  0  0  0
  7  8  1  0  0  0  0
  7  9  2  0  0  0  0
  8 30  1  0  0  0  0
  9 10  1  0  0  0  0
  9 31  1  0  0  0  0
 10 11  1  0  0  0  0
 10 12  2  0  0  0  0
 11 32  1  0  0  0  0
 12 13  1  0  0  0  0
 12 33  1  0  0  0  0
 13 14  1  0  0  0  0
 14 15  1  0  0  0  0
 15 16  1  1  0  0  0
 15 17  1  0  0  0  0
 17 24  2  0  0  0  0
 17 18  1  0  0  0  0
 18 19  2  0  0  0  0
 18 34  1  0  0  0  0
 19 20  1  0  0  0  0
 19 35  1  0  0  0  0
 20 21  1  0  0  0  0
 20 22  2  0  0  0  0
 21 36  1  0  0  0  0
 22 23  1  0  0  0  0
 22 24  1  0  0  0  0
 23 37  1  0  0  0  0
 24 38  1  0  0  0  0
M  END
$$$$
