ZINC000000029888      none
 OpenBabel11202420163D

 25 25  0  0  0  0  0  0  0  0999 V2000
   30.3640   36.4209   63.2665 C   0  0  0  0  0  0  0  0  0  0  0  0
   31.8407   36.7818   63.0938 C   0  0  0  0  0  0  0  0  0  0  0  0
   32.6976   35.8485   63.9515 C   0  0  0  0  0  0  0  0  0  0  0  0
   32.2180   36.6347   61.6858 N   0  0  0  0  0  0  0  0  0  0  0  0
   32.0968   37.6795   60.8430 C   0  0  0  0  0  0  0  0  0  0  0  0
   31.6745   38.7438   61.2511 O   0  0  0  0  0  0  0  0  0  0  0  0
   32.4775   37.5312   59.4227 C   0  0  0  0  0  0  0  0  0  0  0  0
   32.4184   36.2787   58.8085 C   0  0  0  0  0  0  0  0  0  0  0  0
   32.7745   36.1458   57.4831 C   0  0  0  0  0  0  0  0  0  0  0  0
   33.1910   37.2516   56.7606 C   0  0  0  0  0  0  0  0  0  0  0  0
   33.6311   37.0775   55.0903 Cl  0  0  0  0  0  0  0  0  0  0  0  0
   33.2524   38.4977   57.3643 C   0  0  0  0  0  0  0  0  0  0  0  0
   33.7757   39.8783   56.4512 Cl  0  0  0  0  0  0  0  0  0  0  0  0
   32.8979   38.6426   58.6904 C   0  0  0  0  0  0  0  0  0  0  0  0
   29.7536   37.0858   62.6555 H   0  0  0  0  0  0  0  0  0  0  0  0
   30.2031   35.3894   62.9530 H   0  0  0  0  0  0  0  0  0  0  0  0
   30.0834   36.5303   64.3140 H   0  0  0  0  0  0  0  0  0  0  0  0
   32.0018   37.8133   63.4073 H   0  0  0  0  0  0  0  0  0  0  0  0
   33.7497   36.1057   63.8284 H   0  0  0  0  0  0  0  0  0  0  0  0
   32.4169   35.9579   64.9990 H   0  0  0  0  0  0  0  0  0  0  0  0
   32.5366   34.8170   63.6380 H   0  0  0  0  0  0  0  0  0  0  0  0
   32.5550   35.7855   61.3601 H   0  0  0  0  0  0  0  0  0  0  0  0
   32.0934   35.4155   59.3703 H   0  0  0  0  0  0  0  0  0  0  0  0
   32.7284   35.1773   57.0072 H   0  0  0  0  0  0  0  0  0  0  0  0
   32.9458   39.6138   59.1604 H   0  0  0  0  0  0  0  0  0  0  0  0
  1  2  1  0  0  0  0
  1 15  1  0  0  0  0
  1 16  1  0  0  0  0
  1 17  1  0  0  0  0
  2  3  1  0  0  0  0
  2  4  1  0  0  0  0
  2 18  1  0  0  0  0
  3 19  1  0  0  0  0
  3 20  1  0  0  0  0
  3 21  1  0  0  0  0
  4  5  1  0  0  0  0
  4 22  1  0  0  0  0
  5  6  2  0  0  0  0
  5  7  1  0  0  0  0
  7 14  2  0  0  0  0
  7  8  1  0  0  0  0
  8  9  2  0  0  0  0
  8 23  1  0  0  0  0
  9 10  1  0  0  0  0
  9 24  1  0  0  0  0
 10 11  1  0  0  0  0
 10 12  2  0  0  0  0
 12 13  1  0  0  0  0
 12 14  1  0  0  0  0
 14 25  1  0  0  0  0
M  END
$$$$
