ZINC000000029052      none
 OpenBabel11202420163D

 38 40  0  0  0  0  0  0  0  0999 V2000
   32.0533   38.9876   59.8763 O   0  0  0  0  0  0  0  0  0  0  0  0
   32.4115   37.8370   59.7148 C   0  0  0  0  0  0  0  0  0  0  0  0
   32.4793   36.9983   60.7677 N   0  0  0  0  0  0  0  0  0  0  0  0
   32.1372   37.4522   62.0478 C   0  0  0  0  0  0  0  0  0  0  0  0
   32.7454   36.8981   63.1665 C   0  0  0  0  0  0  0  0  0  0  0  0
   32.4082   37.3453   64.4284 C   0  0  0  0  0  0  0  0  0  0  0  0
   31.4607   38.3496   64.5789 C   0  0  0  0  0  0  0  0  0  0  0  0
   31.1190   38.8030   65.8576 N   0  0  0  0  0  0  0  0  0  0  0  0
   32.2843   38.7338   66.7760 C   0  0  0  0  0  0  0  0  0  0  0  0
   31.9023   39.7198   67.9084 C   0  0  0  0  0  0  0  0  0  0  0  0
   31.1851   40.8587   67.1478 C   0  0  0  0  0  0  0  0  0  0  0  0
   30.7150   40.2254   65.8252 C   0  0  0  0  0  0  0  0  0  0  0  0
   30.8482   38.8998   63.4604 C   0  0  0  0  0  0  0  0  0  0  0  0
   31.1895   38.4560   62.1983 C   0  0  0  0  0  0  0  0  0  0  0  0
   32.7724   37.3581   58.3642 C   0  0  0  0  0  0  0  0  0  0  0  0
   32.6376   36.0067   58.0404 C   0  0  0  0  0  0  0  0  0  0  0  0
   32.9710   35.5669   56.7767 C   0  0  0  0  0  0  0  0  0  0  0  0
   33.4490   36.4606   55.8331 C   0  0  0  0  0  0  0  0  0  0  0  0
   33.9119   35.8476   54.1052 Br  0  0  0  0  0  0  0  0  0  0  0  0
   33.5899   37.8013   56.1498 C   0  0  0  0  0  0  0  0  0  0  0  0
   33.2549   38.2543   57.4085 C   0  0  0  0  0  0  0  0  0  0  0  0
   32.7651   36.0803   60.6388 H   0  0  0  0  0  0  0  0  0  0  0  0
   33.4824   36.1173   63.0495 H   0  0  0  0  0  0  0  0  0  0  0  0
   32.8810   36.9141   65.2983 H   0  0  0  0  0  0  0  0  0  0  0  0
   32.4049   37.7243   67.1692 H   0  0  0  0  0  0  0  0  0  0  0  0
   33.1927   39.0619   66.2704 H   0  0  0  0  0  0  0  0  0  0  0  0
   32.7940   40.0936   68.4115 H   0  0  0  0  0  0  0  0  0  0  0  0
   31.2264   39.2461   68.6205 H   0  0  0  0  0  0  0  0  0  0  0  0
   31.8781   41.6767   66.9502 H   0  0  0  0  0  0  0  0  0  0  0  0
   30.3298   41.2165   67.7210 H   0  0  0  0  0  0  0  0  0  0  0  0
   31.1913   40.7275   64.9831 H   0  0  0  0  0  0  0  0  0  0  0  0
   29.6313   40.3017   65.7380 H   0  0  0  0  0  0  0  0  0  0  0  0
   30.1082   39.6775   63.5775 H   0  0  0  0  0  0  0  0  0  0  0  0
   30.7162   38.8867   61.3282 H   0  0  0  0  0  0  0  0  0  0  0  0
   32.2694   35.3079   58.7770 H   0  0  0  0  0  0  0  0  0  0  0  0
   32.8633   34.5224   56.5237 H   0  0  0  0  0  0  0  0  0  0  0  0
   33.9632   38.4935   55.4096 H   0  0  0  0  0  0  0  0  0  0  0  0
   33.3658   39.3000   57.6545 H   0  0  0  0  0  0  0  0  0  0  0  0
  1  2  2  0  0  0  0
  2  3  1  0  0  0  0
  2 15  1  0  0  0  0
  3  4  1  0  0  0  0
  3 22  1  0  0  0  0
  4 14  2  0  0  0  0
  4  5  1  0  0  0  0
  5  6  2  0  0  0  0
  5 23  1  0  0  0  0
  6  7  1  0  0  0  0
  6 24  1  0  0  0  0
  7  8  1  0  0  0  0
  7 13  2  0  0  0  0
  8 12  1  0  0  0  0
  8  9  1  0  0  0  0
  9 10  1  0  0  0  0
  9 25  1  0  0  0  0
  9 26  1  0  0  0  0
 10 11  1  0  0  0  0
 10 27  1  0  0  0  0
 10 28  1  0  0  0  0
 11 12  1  0  0  0  0
 11 29  1  0  0  0  0
 11 30  1  0  0  0  0
 12 31  1  0  0  0  0
 12 32  1  0  0  0  0
 13 14  1  0  0  0  0
 13 33  1  0  0  0  0
 14 34  1  0  0  0  0
 15 21  2  0  0  0  0
 15 16  1  0  0  0  0
 16 17  2  0  0  0  0
 16 35  1  0  0  0  0
 17 18  1  0  0  0  0
 17 36  1  0  0  0  0
 18 19  1  0  0  0  0
 18 20  2  0  0  0  0
 20 21  1  0  0  0  0
 20 37  1  0  0  0  0
 21 38  1  0  0  0  0
M  END
$$$$
