ZINC000000031506      none
 OpenBabel11202420163D

 45 46  0  0  1  0  0  0  0  0999 V2000
   32.9427   37.9747   66.9427 C   0  0  0  0  0  0  0  0  0  0  0  0
   32.9478   37.2439   65.5985 C   0  0  0  0  0  0  0  0  0  0  0  0
   31.6955   37.6246   64.8063 C   0  0  2  0  0  0  0  0  0  0  0  0
   31.6873   38.7010   64.6346 H   0  0  0  0  0  0  0  0  0  0  0  0
   30.4495   37.2253   65.5993 C   0  0  0  0  0  0  0  0  0  0  0  0
   31.7005   36.9048   63.4823 C   0  0  0  0  0  0  0  0  0  0  0  0
   31.7107   35.5223   63.4488 C   0  0  0  0  0  0  0  0  0  0  0  0
   31.7104   34.8595   62.2372 C   0  0  0  0  0  0  0  0  0  0  0  0
   31.7105   35.5831   61.0514 C   0  0  0  0  0  0  0  0  0  0  0  0
   31.7160   34.9155   59.8237 N   0  0  0  0  0  0  0  0  0  0  0  0
   32.3000   35.4838   58.7502 C   0  0  0  0  0  0  0  0  0  0  0  0
   32.8214   36.5764   58.8498 O   0  0  0  0  0  0  0  0  0  0  0  0
   32.3061   34.7742   57.4453 C   0  0  0  0  0  0  0  0  0  0  0  0
   31.5712   33.2342   57.3050 S   0  0  0  0  0  0  0  0  0  0  0  0
   32.8901   35.3425   56.3718 N   0  0  0  0  0  0  0  0  0  0  0  0
   32.8960   34.6427   55.0848 C   0  0  0  0  0  0  0  0  0  0  0  0
   33.6056   35.4863   54.0574 C   0  0  0  0  0  0  0  0  0  0  0  0
   33.2476   35.3994   52.7250 C   0  0  0  0  0  0  0  0  0  0  0  0
   33.8952   36.1769   51.7833 C   0  0  0  0  0  0  0  0  0  0  0  0
   34.9073   37.0336   52.1719 C   0  0  0  0  0  0  0  0  0  0  0  0
   35.2694   37.1166   53.5041 C   0  0  0  0  0  0  0  0  0  0  0  0
   34.6183   36.3430   54.4466 C   0  0  0  0  0  0  0  0  0  0  0  0
   31.7055   36.9718   61.0887 C   0  0  0  0  0  0  0  0  0  0  0  0
   31.7004   37.6283   62.3037 C   0  0  0  0  0  0  0  0  0  0  0  0
   33.8350   37.7035   67.5070 H   0  0  0  0  0  0  0  0  0  0  0  0
   32.9347   39.0511   66.7710 H   0  0  0  0  0  0  0  0  0  0  0  0
   32.0551   37.6902   67.5076 H   0  0  0  0  0  0  0  0  0  0  0  0
   32.9559   36.1675   65.7702 H   0  0  0  0  0  0  0  0  0  0  0  0
   33.8355   37.5285   65.0336 H   0  0  0  0  0  0  0  0  0  0  0  0
   30.4575   36.1490   65.7709 H   0  0  0  0  0  0  0  0  0  0  0  0
   30.4459   37.7460   66.5569 H   0  0  0  0  0  0  0  0  0  0  0  0
   29.5572   37.4965   65.0349 H   0  0  0  0  0  0  0  0  0  0  0  0
   31.7151   34.9605   64.3711 H   0  0  0  0  0  0  0  0  0  0  0  0
   31.7146   33.7798   62.2118 H   0  0  0  0  0  0  0  0  0  0  0  0
   31.2997   34.0431   59.7441 H   0  0  0  0  0  0  0  0  0  0  0  0
   33.3065   36.2150   56.4513 H   0  0  0  0  0  0  0  0  0  0  0  0
   33.4134   33.6892   55.1921 H   0  0  0  0  0  0  0  0  0  0  0  0
   31.8698   34.4649   54.7631 H   0  0  0  0  0  0  0  0  0  0  0  0
   32.4594   34.7268   52.4204 H   0  0  0  0  0  0  0  0  0  0  0  0
   33.6130   36.1118   50.7428 H   0  0  0  0  0  0  0  0  0  0  0  0
   35.4169   37.6378   51.4360 H   0  0  0  0  0  0  0  0  0  0  0  0
   36.0609   37.7857   53.8080 H   0  0  0  0  0  0  0  0  0  0  0  0
   34.9009   36.4076   55.4868 H   0  0  0  0  0  0  0  0  0  0  0  0
   31.7059   37.5374   60.1687 H   0  0  0  0  0  0  0  0  0  0  0  0
   31.6963   38.7078   62.3334 H   0  0  0  0  0  0  0  0  0  0  0  0
  1  2  1  0  0  0  0
  1 25  1  0  0  0  0
  1 26  1  0  0  0  0
  1 27  1  0  0  0  0
  2  3  1  0  0  0  0
  2 28  1  0  0  0  0
  2 29  1  0  0  0  0
  3  4  1  6  0  0  0
  3  5  1  0  0  0  0
  3  6  1  0  0  0  0
  5 30  1  0  0  0  0
  5 31  1  0  0  0  0
  5 32  1  0  0  0  0
  6 24  2  0  0  0  0
  6  7  1  0  0  0  0
  7  8  2  0  0  0  0
  7 33  1  0  0  0  0
  8  9  1  0  0  0  0
  8 34  1  0  0  0  0
  9 10  1  0  0  0  0
  9 23  2  0  0  0  0
 10 11  1  0  0  0  0
 10 35  1  0  0  0  0
 11 12  2  0  0  0  0
 11 13  1  0  0  0  0
 13 14  2  0  0  0  0
 13 15  1  0  0  0  0
 15 16  1  0  0  0  0
 15 36  1  0  0  0  0
 16 17  1  0  0  0  0
 16 37  1  0  0  0  0
 16 38  1  0  0  0  0
 17 22  2  0  0  0  0
 17 18  1  0  0  0  0
 18 19  2  0  0  0  0
 18 39  1  0  0  0  0
 19 20  1  0  0  0  0
 19 40  1  0  0  0  0
 20 21  2  0  0  0  0
 20 41  1  0  0  0  0
 21 22  1  0  0  0  0
 21 42  1  0  0  0  0
 22 43  1  0  0  0  0
 23 24  1  0  0  0  0
 23 44  1  0  0  0  0
 24 45  1  0  0  0  0
M  END
$$$$
