ZINC000000013626      none
 OpenBabel11202420153D

 37 39  0  0  0  0  0  0  0  0999 V2000
   31.6969   32.7794   60.5566 C   0  0  0  0  0  0  0  0  0  0  0  0
   32.0787   33.9251   59.6172 C   0  0  0  0  0  0  0  0  0  0  0  0
   31.9211   35.2029   60.3162 N   0  0  0  0  0  0  0  0  0  0  0  0
   31.5027   35.1904   61.5889 C   0  0  0  0  0  0  0  0  0  0  0  0
   31.3226   36.3495   62.3145 C   0  0  0  0  0  0  0  0  0  0  0  0
   30.8543   36.2938   63.7082 C   0  0  0  0  0  0  0  0  0  0  0  0
   30.6821   37.4332   64.4073 N   0  0  0  0  0  0  0  0  0  0  0  0
   30.6226   35.2195   64.2294 O   0  0  0  0  0  0  0  0  0  0  0  0
   31.6122   37.6423   61.6743 C   0  0  0  0  0  0  0  0  0  0  0  0
   31.4740   38.6935   62.2751 O   0  0  0  0  0  0  0  0  0  0  0  0
   32.0774   37.6126   60.2751 C   0  0  0  0  0  0  0  0  0  0  0  0
   32.3755   38.7922   59.5907 C   0  0  0  0  0  0  0  0  0  0  0  0
   32.8047   38.7377   58.2962 C   0  0  0  0  0  0  0  0  0  0  0  0
   32.9474   37.5050   57.6513 C   0  0  0  0  0  0  0  0  0  0  0  0
   33.4152   37.4595   56.2443 C   0  0  0  0  0  0  0  0  0  0  0  0
   33.0130   36.4314   55.3869 C   0  0  0  0  0  0  0  0  0  0  0  0
   33.4673   36.4304   54.0838 C   0  0  0  0  0  0  0  0  0  0  0  0
   34.2780   37.3753   53.6485 N   0  0  0  0  0  0  0  0  0  0  0  0
   34.6855   38.3599   54.4263 C   0  0  0  0  0  0  0  0  0  0  0  0
   34.2746   38.4403   55.7414 C   0  0  0  0  0  0  0  0  0  0  0  0
   32.6544   36.3230   58.3195 C   0  0  0  0  0  0  0  0  0  0  0  0
   32.2164   36.3665   59.6388 C   0  0  0  0  0  0  0  0  0  0  0  0
   31.8142   31.8287   60.0365 H   0  0  0  0  0  0  0  0  0  0  0  0
   32.3451   32.7966   61.4328 H   0  0  0  0  0  0  0  0  0  0  0  0
   30.6595   32.8967   60.8697 H   0  0  0  0  0  0  0  0  0  0  0  0
   31.4306   33.9079   58.7410 H   0  0  0  0  0  0  0  0  0  0  0  0
   33.1161   33.8079   59.3040 H   0  0  0  0  0  0  0  0  0  0  0  0
   31.2947   34.2415   62.0606 H   0  0  0  0  0  0  0  0  0  0  0  0
   30.8668   38.2899   63.9916 H   0  0  0  0  0  0  0  0  0  0  0  0
   30.3695   37.3967   65.3248 H   0  0  0  0  0  0  0  0  0  0  0  0
   32.2665   39.7465   60.0845 H   0  0  0  0  0  0  0  0  0  0  0  0
   33.0355   39.6508   57.7675 H   0  0  0  0  0  0  0  0  0  0  0  0
   32.3530   35.6518   55.7378 H   0  0  0  0  0  0  0  0  0  0  0  0
   33.1583   35.6428   53.4125 H   0  0  0  0  0  0  0  0  0  0  0  0
   35.3499   39.1129   54.0288 H   0  0  0  0  0  0  0  0  0  0  0  0
   34.6119   39.2493   56.3723 H   0  0  0  0  0  0  0  0  0  0  0  0
   32.7668   35.3738   57.8167 H   0  0  0  0  0  0  0  0  0  0  0  0
  1  2  1  0  0  0  0
  1 23  1  0  0  0  0
  1 24  1  0  0  0  0
  1 25  1  0  0  0  0
  2  3  1  0  0  0  0
  2 26  1  0  0  0  0
  2 27  1  0  0  0  0
  3 22  1  0  0  0  0
  3  4  1  0  0  0  0
  4  5  2  0  0  0  0
  4 28  1  0  0  0  0
  5  6  1  0  0  0  0
  5  9  1  0  0  0  0
  6  7  1  0  0  0  0
  6  8  2  0  0  0  0
  7 29  1  0  0  0  0
  7 30  1  0  0  0  0
  9 10  2  0  0  0  0
  9 11  1  0  0  0  0
 11 22  2  0  0  0  0
 11 12  1  0  0  0  0
 12 13  2  0  0  0  0
 12 31  1  0  0  0  0
 13 14  1  0  0  0  0
 13 32  1  0  0  0  0
 14 15  1  0  0  0  0
 14 21  2  0  0  0  0
 15 20  2  0  0  0  0
 15 16  1  0  0  0  0
 16 17  2  0  0  0  0
 16 33  1  0  0  0  0
 17 18  1  0  0  0  0
 17 34  1  0  0  0  0
 18 19  2  0  0  0  0
 19 20  1  0  0  0  0
 19 35  1  0  0  0  0
 20 36  1  0  0  0  0
 21 22  1  0  0  0  0
 21 37  1  0  0  0  0
M  END
$$$$
