ZINC000000009111      none
 OpenBabel11202420153D

 26 28  0  0  1  0  0  0  0  0999 V2000
   29.0977   39.6378   62.9993 O   0  0  0  0  0  0  0  0  0  0  0  0
   29.7070   38.6079   62.7789 C   0  0  0  0  0  0  0  0  0  0  0  0
   31.1335   38.4759   63.1294 C   0  0  0  0  0  0  0  0  0  0  0  0
   31.8484   37.4961   62.5924 C   0  0  0  0  0  0  0  0  0  0  0  0
   31.2797   36.5087   61.6227 C   0  0  2  0  0  0  0  0  0  0  0  0
   31.7616   35.2058   61.9572 O   0  0  0  0  0  0  0  0  0  0  0  0
   31.7560   36.8603   60.2369 C   0  0  0  0  0  0  0  0  0  0  0  0
   32.0262   38.0489   59.8486 N   0  0  0  0  0  0  0  0  0  0  0  0
   32.4435   38.2163   58.5793 C   0  0  0  0  0  0  0  0  0  0  0  0
   32.8040   39.3969   57.8984 C   0  0  0  0  0  0  0  0  0  0  0  0
   33.2037   39.3481   56.5976 C   0  0  0  0  0  0  0  0  0  0  0  0
   33.2642   38.1395   55.9180 C   0  0  0  0  0  0  0  0  0  0  0  0
   32.9185   36.9705   56.5576 C   0  0  0  0  0  0  0  0  0  0  0  0
   32.5069   37.0013   57.8884 C   0  0  0  0  0  0  0  0  0  0  0  0
   32.0029   35.7226   58.9892 S   0  0  0  0  0  0  0  0  0  0  0  0
   29.7837   36.4818   61.6255 C   0  0  0  0  0  0  0  0  0  0  0  0
   29.0441   37.4493   62.1514 C   0  0  0  0  0  0  0  0  0  0  0  0
   31.5920   39.1706   63.8176 H   0  0  0  0  0  0  0  0  0  0  0  0
   32.8889   37.4071   62.8674 H   0  0  0  0  0  0  0  0  0  0  0  0
   31.4590   34.5087   61.3590 H   0  0  0  0  0  0  0  0  0  0  0  0
   32.7628   40.3462   58.4118 H   0  0  0  0  0  0  0  0  0  0  0  0
   33.4769   40.2607   56.0887 H   0  0  0  0  0  0  0  0  0  0  0  0
   33.5827   38.1160   54.8863 H   0  0  0  0  0  0  0  0  0  0  0  0
   32.9660   36.0305   56.0281 H   0  0  0  0  0  0  0  0  0  0  0  0
   29.2831   35.6356   61.1786 H   0  0  0  0  0  0  0  0  0  0  0  0
   27.9662   37.3892   62.1205 H   0  0  0  0  0  0  0  0  0  0  0  0
  1  2  2  0  0  0  0
  2 17  1  0  0  0  0
  2  3  1  0  0  0  0
  3  4  2  0  0  0  0
  3 18  1  0  0  0  0
  4  5  1  0  0  0  0
  4 19  1  0  0  0  0
  5  6  1  1  0  0  0
  5  7  1  0  0  0  0
  5 16  1  0  0  0  0
  6 20  1  0  0  0  0
  7 15  1  0  0  0  0
  7  8  2  0  0  0  0
  8  9  1  0  0  0  0
  9 14  2  0  0  0  0
  9 10  1  0  0  0  0
 10 11  2  0  0  0  0
 10 21  1  0  0  0  0
 11 12  1  0  0  0  0
 11 22  1  0  0  0  0
 12 13  2  0  0  0  0
 12 23  1  0  0  0  0
 13 14  1  0  0  0  0
 13 24  1  0  0  0  0
 14 15  1  0  0  0  0
 16 17  2  0  0  0  0
 16 25  1  0  0  0  0
 17 26  1  0  0  0  0
M  END
$$$$
