ZINC000000038622      none
 OpenBabel11202420153D

 28 29  0  0  0  0  0  0  0  0999 V2000
   34.1731   36.2506   52.9509 C   0  0  0  0  0  0  0  0  0  0  0  0
   33.7449   36.4230   54.3854 C   0  0  0  0  0  0  0  0  0  0  0  0
   33.2078   35.3518   55.0773 C   0  0  0  0  0  0  0  0  0  0  0  0
   32.8134   35.5028   56.3904 C   0  0  0  0  0  0  0  0  0  0  0  0
   32.9576   36.7401   57.0215 C   0  0  0  0  0  0  0  0  0  0  0  0
   32.5369   36.9094   58.4273 C   0  0  0  0  0  0  0  0  0  0  0  0
   33.1050   37.7140   59.1386 O   0  0  0  0  0  0  0  0  0  0  0  0
   31.5232   36.1719   58.9207 O   0  0  0  0  0  0  0  0  0  0  0  0
   31.8049   35.3646   59.9774 C   0  0  0  0  0  0  0  0  0  0  0  0
   32.2294   34.0615   59.7628 C   0  0  0  0  0  0  0  0  0  0  0  0
   32.5153   33.2432   60.8383 C   0  0  0  0  0  0  0  0  0  0  0  0
   32.3790   33.7214   62.1286 C   0  0  0  0  0  0  0  0  0  0  0  0
   31.9562   35.0196   62.3463 C   0  0  0  0  0  0  0  0  0  0  0  0
   31.6690   35.8430   61.2735 C   0  0  0  0  0  0  0  0  0  0  0  0
   31.1392   37.4735   61.5470 Cl  0  0  0  0  0  0  0  0  0  0  0  0
   33.4959   37.8181   56.3159 C   0  0  0  0  0  0  0  0  0  0  0  0
   33.8911   37.6517   55.0047 C   0  0  0  0  0  0  0  0  0  0  0  0
   33.3355   36.4784   52.2917 H   0  0  0  0  0  0  0  0  0  0  0  0
   35.0000   36.9271   52.7347 H   0  0  0  0  0  0  0  0  0  0  0  0
   34.4937   35.2215   52.7886 H   0  0  0  0  0  0  0  0  0  0  0  0
   33.0969   34.3955   54.5880 H   0  0  0  0  0  0  0  0  0  0  0  0
   32.3943   34.6660   56.9294 H   0  0  0  0  0  0  0  0  0  0  0  0
   32.3404   33.6884   58.7554 H   0  0  0  0  0  0  0  0  0  0  0  0
   32.8454   32.2285   60.6714 H   0  0  0  0  0  0  0  0  0  0  0  0
   32.6028   33.0795   62.9678 H   0  0  0  0  0  0  0  0  0  0  0  0
   31.8505   35.3907   63.3550 H   0  0  0  0  0  0  0  0  0  0  0  0
   33.6063   38.7788   56.7967 H   0  0  0  0  0  0  0  0  0  0  0  0
   34.3114   38.4836   54.4590 H   0  0  0  0  0  0  0  0  0  0  0  0
  1  2  1  0  0  0  0
  1 18  1  0  0  0  0
  1 19  1  0  0  0  0
  1 20  1  0  0  0  0
  2 17  2  0  0  0  0
  2  3  1  0  0  0  0
  3  4  2  0  0  0  0
  3 21  1  0  0  0  0
  4  5  1  0  0  0  0
  4 22  1  0  0  0  0
  5  6  1  0  0  0  0
  5 16  2  0  0  0  0
  6  7  2  0  0  0  0
  6  8  1  0  0  0  0
  8  9  1  0  0  0  0
  9 14  2  0  0  0  0
  9 10  1  0  0  0  0
 10 11  2  0  0  0  0
 10 23  1  0  0  0  0
 11 12  1  0  0  0  0
 11 24  1  0  0  0  0
 12 13  2  0  0  0  0
 12 25  1  0  0  0  0
 13 14  1  0  0  0  0
 13 26  1  0  0  0  0
 14 15  1  0  0  0  0
 16 17  1  0  0  0  0
 16 27  1  0  0  0  0
 17 28  1  0  0  0  0
M  END
$$$$
