ZINC000000016902      none
 OpenBabel11202420153D

 50 53  0  0  1  0  0  0  0  0999 V2000
   31.5038   33.1685   57.8214 C   0  0  0  0  0  0  0  0  0  0  0  0
   32.1387   34.1126   56.7984 C   0  0  0  0  0  0  0  0  0  0  0  0
   32.4109   35.4058   57.4306 N   0  0  0  0  0  0  0  0  0  0  0  0
   32.1024   35.5562   58.6638 N   0  0  0  0  0  0  0  0  0  0  0  0
   32.2947   36.6637   59.3445 C   0  0  0  0  0  0  0  0  0  0  0  0
   31.9063   36.7418   60.7649 C   0  0  0  0  0  0  0  0  0  0  0  0
   32.0870   37.7696   61.3891 O   0  0  0  0  0  0  0  0  0  0  0  0
   31.3509   35.6739   61.3713 N   0  0  0  0  0  0  0  0  0  0  0  0
   30.9650   35.7516   62.7825 C   0  0  1  0  0  0  0  0  0  0  0  0
   32.2015   36.0567   63.6327 C   0  0  0  0  0  0  0  0  0  0  0  0
   31.7614   36.2821   65.0881 C   0  0  2  0  0  0  0  0  0  0  0  0
   32.6110   36.3704   65.7651 H   0  0  0  0  0  0  0  0  0  0  0  0
   30.8181   35.1222   65.4819 C   0  0  0  0  0  0  0  0  0  0  0  0
   29.4027   35.6262   65.0659 C   0  0  0  0  0  0  0  0  0  0  0  0
   29.6392   37.0316   64.4663 C   0  0  2  0  0  0  0  0  0  0  0  0
   28.8063   37.7077   64.6600 H   0  0  0  0  0  0  0  0  0  0  0  0
   29.9260   36.8615   62.9660 C   0  0  0  0  0  0  0  0  0  0  0  0
   30.8998   37.4943   65.1053 N   0  3  1  0  0  0  0  0  0  0  0  0
   31.3199   38.2363   64.5660 H   0  0  0  0  0  0  0  0  0  0  0  0
   30.6529   37.9339   66.4850 C   0  0  0  0  0  0  0  0  0  0  0  0
   32.9035   37.8277   58.6738 C   0  0  0  0  0  0  0  0  0  0  0  0
   33.1035   38.8772   59.2598 O   0  0  0  0  0  0  0  0  0  0  0  0
   33.2575   37.6479   57.2536 C   0  0  0  0  0  0  0  0  0  0  0  0
   33.8383   38.6645   56.5001 C   0  0  0  0  0  0  0  0  0  0  0  0
   34.1439   38.4389   55.1859 C   0  0  0  0  0  0  0  0  0  0  0  0
   33.8797   37.2070   54.6025 C   0  0  0  0  0  0  0  0  0  0  0  0
   33.3050   36.1888   55.3309 C   0  0  0  0  0  0  0  0  0  0  0  0
   32.9847   36.3952   56.6702 C   0  0  0  0  0  0  0  0  0  0  0  0
   30.5704   33.5995   58.1834 H   0  0  0  0  0  0  0  0  0  0  0  0
   31.3012   32.2063   57.3510 H   0  0  0  0  0  0  0  0  0  0  0  0
   32.1875   33.0269   58.6585 H   0  0  0  0  0  0  0  0  0  0  0  0
   31.4551   34.2542   55.9613 H   0  0  0  0  0  0  0  0  0  0  0  0
   33.0719   33.6816   56.4364 H   0  0  0  0  0  0  0  0  0  0  0  0
   31.2069   34.8540   60.8735 H   0  0  0  0  0  0  0  0  0  0  0  0
   30.5368   34.7989   63.0942 H   0  0  0  0  0  0  0  0  0  0  0  0
   32.8930   35.2154   63.5867 H   0  0  0  0  0  0  0  0  0  0  0  0
   32.6910   36.9549   63.2561 H   0  0  0  0  0  0  0  0  0  0  0  0
   31.0838   34.2158   64.9379 H   0  0  0  0  0  0  0  0  0  0  0  0
   30.8610   34.9467   66.5568 H   0  0  0  0  0  0  0  0  0  0  0  0
   28.7526   35.6904   65.9383 H   0  0  0  0  0  0  0  0  0  0  0  0
   28.9685   34.9629   64.3179 H   0  0  0  0  0  0  0  0  0  0  0  0
   30.3139   37.7955   62.5596 H   0  0  0  0  0  0  0  0  0  0  0  0
   29.0063   36.5899   62.4478 H   0  0  0  0  0  0  0  0  0  0  0  0
   31.6021   38.1685   66.9669 H   0  0  0  0  0  0  0  0  0  0  0  0
   30.0209   38.8219   66.4759 H   0  0  0  0  0  0  0  0  0  0  0  0
   30.1529   37.1376   67.0361 H   0  0  0  0  0  0  0  0  0  0  0  0
   34.0500   39.6227   56.9511 H   0  0  0  0  0  0  0  0  0  0  0  0
   34.5945   39.2248   54.5979 H   0  0  0  0  0  0  0  0  0  0  0  0
   34.1274   37.0451   53.5638 H   0  0  0  0  0  0  0  0  0  0  0  0
   33.1043   35.2350   54.8657 H   0  0  0  0  0  0  0  0  0  0  0  0
  1  2  1  0  0  0  0
  1 29  1  0  0  0  0
  1 30  1  0  0  0  0
  1 31  1  0  0  0  0
  2  3  1  0  0  0  0
  2 32  1  0  0  0  0
  2 33  1  0  0  0  0
  3 28  1  0  0  0  0
  3  4  1  0  0  0  0
  4  5  2  0  0  0  0
  5  6  1  0  0  0  0
  5 21  1  0  0  0  0
  6  7  2  0  0  0  0
  6  8  1  0  0  0  0
  8  9  1  0  0  0  0
  8 34  1  0  0  0  0
  9 17  1  0  0  0  0
  9 10  1  0  0  0  0
  9 35  1  1  0  0  0
 10 11  1  0  0  0  0
 10 36  1  0  0  0  0
 10 37  1  0  0  0  0
 11 12  1  1  0  0  0
 11 18  1  0  0  0  0
 11 13  1  0  0  0  0
 13 14  1  0  0  0  0
 13 38  1  0  0  0  0
 13 39  1  0  0  0  0
 14 15  1  0  0  0  0
 14 40  1  0  0  0  0
 14 41  1  0  0  0  0
 15 16  1  1  0  0  0
 15 17  1  0  0  0  0
 15 18  1  0  0  0  0
 17 42  1  0  0  0  0
 17 43  1  0  0  0  0
 18 19  1  6  0  0  0
 18 20  1  0  0  0  0
 20 44  1  0  0  0  0
 20 45  1  0  0  0  0
 20 46  1  0  0  0  0
 21 22  2  0  0  0  0
 21 23  1  0  0  0  0
 23 28  2  0  0  0  0
 23 24  1  0  0  0  0
 24 25  2  0  0  0  0
 24 47  1  0  0  0  0
 25 26  1  0  0  0  0
 25 48  1  0  0  0  0
 26 27  2  0  0  0  0
 26 49  1  0  0  0  0
 27 28  1  0  0  0  0
 27 50  1  0  0  0  0
M  CHG  1  18   1
M  END
$$$$
