ZINC000000030295      none
 OpenBabel11202420163D

 32 33  0  0  0  0  0  0  0  0999 V2000
   33.6707   40.0918   57.7395 C   0  0  0  0  0  0  0  0  0  0  0  0
   33.6792   38.7244   57.3244 O   0  0  0  0  0  0  0  0  0  0  0  0
   33.0079   37.8382   58.1060 C   0  0  0  0  0  0  0  0  0  0  0  0
   32.9746   36.4947   57.7621 C   0  0  0  0  0  0  0  0  0  0  0  0
   32.2912   35.5958   58.5581 C   0  0  0  0  0  0  0  0  0  0  0  0
   31.6404   36.0344   59.6965 C   0  0  0  0  0  0  0  0  0  0  0  0
   30.7692   34.8855   60.7092 S   0  0  0  0  0  0  0  0  0  0  0  0
   30.4417   33.7828   59.8747 O   0  0  0  0  0  0  0  0  0  0  0  0
   29.7959   35.6366   61.4221 O   0  0  0  0  0  0  0  0  0  0  0  0
   31.8396   34.3166   61.8375 N   0  0  0  0  0  0  0  0  0  0  0  0
   31.9779   34.9715   63.0579 C   0  0  0  0  0  0  0  0  0  0  0  0
   32.9126   35.9935   63.1952 C   0  0  0  0  0  0  0  0  0  0  0  0
   33.0517   36.6436   64.4006 C   0  0  0  0  0  0  0  0  0  0  0  0
   32.2528   36.2762   65.4874 C   0  0  0  0  0  0  0  0  0  0  0  0
   32.3947   36.9503   66.7428 C   0  0  0  0  0  0  0  0  0  0  0  0
   32.5072   37.4852   67.7387 N   0  0  0  0  0  0  0  0  0  0  0  0
   31.3187   35.2452   65.3475 C   0  0  0  0  0  0  0  0  0  0  0  0
   31.1809   34.6032   64.1378 C   0  0  0  0  0  0  0  0  0  0  0  0
   31.6674   37.3738   60.0383 C   0  0  0  0  0  0  0  0  0  0  0  0
   32.3545   38.2757   59.2489 C   0  0  0  0  0  0  0  0  0  0  0  0
   34.1210   40.1741   58.7287 H   0  0  0  0  0  0  0  0  0  0  0  0
   34.2413   40.6906   57.0296 H   0  0  0  0  0  0  0  0  0  0  0  0
   32.6432   40.4538   57.7768 H   0  0  0  0  0  0  0  0  0  0  0  0
   33.4822   36.1517   56.8726 H   0  0  0  0  0  0  0  0  0  0  0  0
   32.2650   34.5498   58.2907 H   0  0  0  0  0  0  0  0  0  0  0  0
   32.3701   33.5271   61.6479 H   0  0  0  0  0  0  0  0  0  0  0  0
   33.5293   36.2771   62.3553 H   0  0  0  0  0  0  0  0  0  0  0  0
   33.7774   37.4363   64.5066 H   0  0  0  0  0  0  0  0  0  0  0  0
   30.7031   34.9559   66.1864 H   0  0  0  0  0  0  0  0  0  0  0  0
   30.4566   33.8098   64.0277 H   0  0  0  0  0  0  0  0  0  0  0  0
   31.1542   37.7147   60.9253 H   0  0  0  0  0  0  0  0  0  0  0  0
   32.3786   39.3212   59.5187 H   0  0  0  0  0  0  0  0  0  0  0  0
  1  2  1  0  0  0  0
  1 21  1  0  0  0  0
  1 22  1  0  0  0  0
  1 23  1  0  0  0  0
  2  3  1  0  0  0  0
  3 20  2  0  0  0  0
  3  4  1  0  0  0  0
  4  5  2  0  0  0  0
  4 24  1  0  0  0  0
  5  6  1  0  0  0  0
  5 25  1  0  0  0  0
  6  7  1  0  0  0  0
  6 19  2  0  0  0  0
  7  8  2  0  0  0  0
  7  9  2  0  0  0  0
  7 10  1  0  0  0  0
 10 11  1  0  0  0  0
 10 26  1  0  0  0  0
 11 18  2  0  0  0  0
 11 12  1  0  0  0  0
 12 13  2  0  0  0  0
 12 27  1  0  0  0  0
 13 14  1  0  0  0  0
 13 28  1  0  0  0  0
 14 15  1  0  0  0  0
 14 17  2  0  0  0  0
 15 16  3  0  0  0  0
 17 18  1  0  0  0  0
 17 29  1  0  0  0  0
 18 30  1  0  0  0  0
 19 20  1  0  0  0  0
 19 31  1  0  0  0  0
 20 32  1  0  0  0  0
M  END
$$$$
