ZINC000000034076      none
 OpenBabel11202420153D

 34 36  0  0  0  0  0  0  0  0999 V2000
   30.4425   32.1909   58.0563 N   0  0  0  0  0  0  0  0  0  0  0  0
   31.1169   33.0899   57.8906 C   0  0  0  0  0  0  0  0  0  0  0  0
   31.9670   34.2232   57.6818 C   0  0  0  0  0  0  0  0  0  0  0  0
   32.3190   35.0320   58.7511 C   0  0  0  0  0  0  0  0  0  0  0  0
   31.8412   34.7395   60.0415 C   0  0  0  0  0  0  0  0  0  0  0  0
   30.6675   35.2087   60.5840 C   0  0  0  0  0  0  0  0  0  0  0  0
   30.4481   34.7642   61.8624 C   0  0  0  0  0  0  0  0  0  0  0  0
   31.4003   33.9605   62.3582 C   0  0  0  0  0  0  0  0  0  0  0  0
   32.6444   33.7090   61.2182 S   0  0  0  0  0  0  0  0  0  0  0  0
   32.4656   34.5286   56.3352 C   0  0  0  0  0  0  0  0  0  0  0  0
   31.8023   34.2320   55.3590 O   0  0  0  0  0  0  0  0  0  0  0  0
   33.6578   35.1377   56.1802 N   0  0  0  0  0  0  0  0  0  0  0  0
   34.1553   35.4429   54.8364 C   0  0  0  0  0  0  0  0  0  0  0  0
   34.3573   36.9302   54.7013 C   0  0  0  0  0  0  0  0  0  0  0  0
   34.0753   37.7642   55.7672 C   0  0  0  0  0  0  0  0  0  0  0  0
   34.2638   39.1286   55.6499 C   0  0  0  0  0  0  0  0  0  0  0  0
   34.7279   39.6646   54.4596 C   0  0  0  0  0  0  0  0  0  0  0  0
   35.0119   38.8245   53.3858 C   0  0  0  0  0  0  0  0  0  0  0  0
   34.8245   37.4575   53.5120 C   0  0  0  0  0  0  0  0  0  0  0  0
   35.4543   39.5848   52.3420 O   0  0  0  0  0  0  0  0  0  0  0  0
   35.0511   40.9322   52.6500 C   0  0  0  0  0  0  0  0  0  0  0  0
   34.9922   40.9514   54.0885 O   0  0  0  0  0  0  0  0  0  0  0  0
   32.9601   35.8867   58.5936 H   0  0  0  0  0  0  0  0  0  0  0  0
   29.9876   35.8613   60.0564 H   0  0  0  0  0  0  0  0  0  0  0  0
   29.5718   35.0417   62.4295 H   0  0  0  0  0  0  0  0  0  0  0  0
   31.3800   33.5262   63.3469 H   0  0  0  0  0  0  0  0  0  0  0  0
   34.1864   35.3743   56.9584 H   0  0  0  0  0  0  0  0  0  0  0  0
   33.4305   35.1059   54.0954 H   0  0  0  0  0  0  0  0  0  0  0  0
   35.1041   34.9312   54.6755 H   0  0  0  0  0  0  0  0  0  0  0  0
   33.7108   37.3485   56.6949 H   0  0  0  0  0  0  0  0  0  0  0  0
   34.0478   39.7773   56.4860 H   0  0  0  0  0  0  0  0  0  0  0  0
   35.0439   36.8037   52.6808 H   0  0  0  0  0  0  0  0  0  0  0  0
   34.0708   41.1456   52.2237 H   0  0  0  0  0  0  0  0  0  0  0  0
   35.7910   41.6459   52.2875 H   0  0  0  0  0  0  0  0  0  0  0  0
  1  2  3  0  0  0  0
  2  3  1  0  0  0  0
  3  4  2  0  0  0  0
  3 10  1  0  0  0  0
  4  5  1  0  0  0  0
  4 23  1  0  0  0  0
  5  9  1  0  0  0  0
  5  6  2  0  0  0  0
  6  7  1  0  0  0  0
  6 24  1  0  0  0  0
  7  8  2  0  0  0  0
  7 25  1  0  0  0  0
  8  9  1  0  0  0  0
  8 26  1  0  0  0  0
 10 11  2  0  0  0  0
 10 12  1  0  0  0  0
 12 13  1  0  0  0  0
 12 27  1  0  0  0  0
 13 14  1  0  0  0  0
 13 28  1  0  0  0  0
 13 29  1  0  0  0  0
 14 19  2  0  0  0  0
 14 15  1  0  0  0  0
 15 16  2  0  0  0  0
 15 30  1  0  0  0  0
 16 17  1  0  0  0  0
 16 31  1  0  0  0  0
 17 22  1  0  0  0  0
 17 18  2  0  0  0  0
 18 19  1  0  0  0  0
 18 20  1  0  0  0  0
 19 32  1  0  0  0  0
 20 21  1  0  0  0  0
 21 22  1  0  0  0  0
 21 33  1  0  0  0  0
 21 34  1  0  0  0  0
M  END
$$$$
