ZINC000000040668      none
 OpenBabel11202420153D

 29 30  0  0  0  0  0  0  0  0999 V2000
   32.4525   33.3783   61.6286 C   0  0  0  0  0  0  0  0  0  0  0  0
   31.2981   34.0151   60.8523 C   0  0  0  0  0  0  0  0  0  0  0  0
   31.8247   35.1461   60.0069 C   0  0  0  0  0  0  0  0  0  0  0  0
   32.2543   34.9149   58.7364 N   0  0  0  0  0  0  0  0  0  0  0  0
   32.2209   34.0164   58.3727 H   0  0  0  0  0  0  0  0  0  0  0  0
   32.7201   35.9247   57.9796 C   0  0  0  0  0  0  0  0  0  0  0  0
   33.0951   35.6948   56.8420 O   0  0  0  0  0  0  0  0  0  0  0  0
   32.7848   37.1698   58.4487 N   0  0  0  0  0  0  0  0  0  0  0  0
   32.3854   37.4533   59.6801 C   0  0  0  0  0  0  0  0  0  0  0  0
   32.4571   38.7421   60.1519 N   0  0  0  0  0  0  0  0  0  0  0  0
   31.8825   36.4154   60.5077 C   0  0  0  0  0  0  0  0  0  0  0  0
   31.4289   36.7039   61.8903 C   0  0  0  0  0  0  0  0  0  0  0  0
   30.1027   37.0578   62.1318 C   0  0  0  0  0  0  0  0  0  0  0  0
   29.6848   37.3195   63.4207 C   0  0  0  0  0  0  0  0  0  0  0  0
   30.5820   37.2418   64.4707 C   0  0  0  0  0  0  0  0  0  0  0  0
   31.9009   36.8970   64.2361 C   0  0  0  0  0  0  0  0  0  0  0  0
   32.3286   36.6276   62.9520 C   0  0  0  0  0  0  0  0  0  0  0  0
   32.0604   32.6186   62.3047 H   0  0  0  0  0  0  0  0  0  0  0  0
   33.1501   32.9174   60.9294 H   0  0  0  0  0  0  0  0  0  0  0  0
   32.9696   34.1455   62.2050 H   0  0  0  0  0  0  0  0  0  0  0  0
   30.8355   33.2660   60.2097 H   0  0  0  0  0  0  0  0  0  0  0  0
   30.5574   34.3998   61.5532 H   0  0  0  0  0  0  0  0  0  0  0  0
   32.1633   38.9454   61.0537 H   0  0  0  0  0  0  0  0  0  0  0  0
   32.8013   39.4483   59.5831 H   0  0  0  0  0  0  0  0  0  0  0  0
   29.4022   37.1226   61.3122 H   0  0  0  0  0  0  0  0  0  0  0  0
   28.6563   37.5894   63.6096 H   0  0  0  0  0  0  0  0  0  0  0  0
   30.2517   37.4515   65.4773 H   0  0  0  0  0  0  0  0  0  0  0  0
   32.5973   36.8383   65.0595 H   0  0  0  0  0  0  0  0  0  0  0  0
   33.3584   36.3578   62.7700 H   0  0  0  0  0  0  0  0  0  0  0  0
  1  2  1  0  0  0  0
  1 18  1  0  0  0  0
  1 19  1  0  0  0  0
  1 20  1  0  0  0  0
  2  3  1  0  0  0  0
  2 21  1  0  0  0  0
  2 22  1  0  0  0  0
  3 11  2  0  0  0  0
  3  4  1  0  0  0  0
  4  5  1  0  0  0  0
  4  6  1  0  0  0  0
  6  7  2  0  0  0  0
  6  8  1  0  0  0  0
  8  9  2  0  0  0  0
  9 10  1  0  0  0  0
  9 11  1  0  0  0  0
 10 23  1  0  0  0  0
 10 24  1  0  0  0  0
 11 12  1  0  0  0  0
 12 17  2  0  0  0  0
 12 13  1  0  0  0  0
 13 14  2  0  0  0  0
 13 25  1  0  0  0  0
 14 15  1  0  0  0  0
 14 26  1  0  0  0  0
 15 16  2  0  0  0  0
 15 27  1  0  0  0  0
 16 17  1  0  0  0  0
 16 28  1  0  0  0  0
 17 29  1  0  0  0  0
M  END
$$$$
