ZINC000000053054      none
 OpenBabel11202420153D

 22 23  0  0  0  0  0  0  0  0999 V2000
   30.6484   39.3365   63.4458 N   0  0  0  0  0  0  0  0  0  0  0  0
   29.4520   38.9415   62.9672 C   0  0  0  0  0  0  0  0  0  0  0  0
   28.5113   39.7070   62.9794 O   0  0  0  0  0  0  0  0  0  0  0  0
   29.2831   37.5488   62.4169 C   0  0  0  0  0  0  0  0  0  0  0  0
   30.8543   36.6582   62.5365 S   0  0  0  0  0  0  0  0  0  0  0  0
   31.5629   37.0775   60.9787 C   0  0  0  0  0  0  0  0  0  0  0  0
   31.9039   36.2165   60.0532 N   0  0  0  0  0  0  0  0  0  0  0  0
   32.4161   36.8973   58.9912 C   0  0  0  0  0  0  0  0  0  0  0  0
   32.9238   36.5071   57.7512 C   0  0  0  0  0  0  0  0  0  0  0  0
   33.3835   37.4611   56.8699 C   0  0  0  0  0  0  0  0  0  0  0  0
   33.3346   38.8067   57.2043 C   0  0  0  0  0  0  0  0  0  0  0  0
   33.9120   39.9962   56.0794 Cl  0  0  0  0  0  0  0  0  0  0  0  0
   32.8301   39.2062   58.4266 C   0  0  0  0  0  0  0  0  0  0  0  0
   32.3688   38.2589   59.3260 C   0  0  0  0  0  0  0  0  0  0  0  0
   31.8333   38.3291   60.5665 O   0  0  0  0  0  0  0  0  0  0  0  0
   31.4008   38.7244   63.4361 H   0  0  0  0  0  0  0  0  0  0  0  0
   30.7571   40.2331   63.8000 H   0  0  0  0  0  0  0  0  0  0  0  0
   28.9762   37.6056   61.3726 H   0  0  0  0  0  0  0  0  0  0  0  0
   28.5217   37.0211   62.9912 H   0  0  0  0  0  0  0  0  0  0  0  0
   32.9599   35.4610   57.4850 H   0  0  0  0  0  0  0  0  0  0  0  0
   33.7800   37.1601   55.9115 H   0  0  0  0  0  0  0  0  0  0  0  0
   32.7957   40.2552   58.6808 H   0  0  0  0  0  0  0  0  0  0  0  0
  1  2  1  0  0  0  0
  1 16  1  0  0  0  0
  1 17  1  0  0  0  0
  2  3  2  0  0  0  0
  2  4  1  0  0  0  0
  4  5  1  0  0  0  0
  4 18  1  0  0  0  0
  4 19  1  0  0  0  0
  5  6  1  0  0  0  0
  6 15  1  0  0  0  0
  6  7  2  0  0  0  0
  7  8  1  0  0  0  0
  8 14  2  0  0  0  0
  8  9  1  0  0  0  0
  9 10  2  0  0  0  0
  9 20  1  0  0  0  0
 10 11  1  0  0  0  0
 10 21  1  0  0  0  0
 11 12  1  0  0  0  0
 11 13  2  0  0  0  0
 13 14  1  0  0  0  0
 13 22  1  0  0  0  0
 14 15  1  0  0  0  0
M  END
$$$$
