ZINC000000002017      none
 OpenBabel11202420153D

 30 32  0  0  0  0  0  0  0  0999 V2000
   33.6642   36.4655   52.0558 C   0  0  0  0  0  0  0  0  0  0  0  0
   33.1938   35.8628   53.3544 C   0  0  0  0  0  0  0  0  0  0  0  0
   32.0115   35.6609   53.5364 O   0  0  0  0  0  0  0  0  0  0  0  0
   34.0867   35.5478   54.3136 N   0  0  0  0  0  0  0  0  0  0  0  0
   33.6479   34.9852   55.5252 C   0  0  0  0  0  0  0  0  0  0  0  0
   33.4981   33.6229   55.7979 C   0  0  0  0  0  0  0  0  0  0  0  0
   33.0696   33.4811   57.0297 N   0  0  0  0  0  0  0  0  0  0  0  0
   32.9223   34.7459   57.6106 N   0  0  0  0  0  0  0  0  0  0  0  0
   32.5150   35.1622   58.8474 C   0  0  0  0  0  0  0  0  0  0  0  0
   32.1237   34.1199   59.8631 C   0  0  0  0  0  0  0  0  0  0  0  0
   32.4502   36.4111   59.1876 N   0  0  0  0  0  0  0  0  0  0  0  0
   32.7837   37.4139   58.3359 C   0  0  0  0  0  0  0  0  0  0  0  0
   32.7069   38.7535   58.7205 C   0  0  0  0  0  0  0  0  0  0  0  0
   33.0537   39.7425   57.8272 C   0  0  0  0  0  0  0  0  0  0  0  0
   33.4802   39.4242   56.5450 C   0  0  0  0  0  0  0  0  0  0  0  0
   33.5645   38.1092   56.1414 C   0  0  0  0  0  0  0  0  0  0  0  0
   33.2184   37.0936   57.0294 C   0  0  0  0  0  0  0  0  0  0  0  0
   33.2863   35.6764   56.6617 C   0  0  0  0  0  0  0  0  0  0  0  0
   33.8764   35.6699   51.3417 H   0  0  0  0  0  0  0  0  0  0  0  0
   32.8870   37.1159   51.6546 H   0  0  0  0  0  0  0  0  0  0  0  0
   34.5692   37.0469   52.2318 H   0  0  0  0  0  0  0  0  0  0  0  0
   35.0320   35.7092   54.1681 H   0  0  0  0  0  0  0  0  0  0  0  0
   33.7020   32.8180   55.1073 H   0  0  0  0  0  0  0  0  0  0  0  0
   31.0579   33.9090   59.7750 H   0  0  0  0  0  0  0  0  0  0  0  0
   32.6909   33.2067   59.6837 H   0  0  0  0  0  0  0  0  0  0  0  0
   32.3390   34.4904   60.8654 H   0  0  0  0  0  0  0  0  0  0  0  0
   32.3762   39.0135   59.7152 H   0  0  0  0  0  0  0  0  0  0  0  0
   32.9888   40.7783   58.1262 H   0  0  0  0  0  0  0  0  0  0  0  0
   33.7477   40.2136   55.8581 H   0  0  0  0  0  0  0  0  0  0  0  0
   33.8967   37.8677   55.1425 H   0  0  0  0  0  0  0  0  0  0  0  0
  1  2  1  0  0  0  0
  1 19  1  0  0  0  0
  1 20  1  0  0  0  0
  1 21  1  0  0  0  0
  2  3  2  0  0  0  0
  2  4  1  0  0  0  0
  4  5  1  0  0  0  0
  4 22  1  0  0  0  0
  5 18  2  0  0  0  0
  5  6  1  0  0  0  0
  6  7  2  0  0  0  0
  6 23  1  0  0  0  0
  7  8  1  0  0  0  0
  8 18  1  0  0  0  0
  8  9  1  0  0  0  0
  9 10  1  0  0  0  0
  9 11  2  0  0  0  0
 10 24  1  0  0  0  0
 10 25  1  0  0  0  0
 10 26  1  0  0  0  0
 11 12  1  0  0  0  0
 12 17  2  0  0  0  0
 12 13  1  0  0  0  0
 13 14  2  0  0  0  0
 13 27  1  0  0  0  0
 14 15  1  0  0  0  0
 14 28  1  0  0  0  0
 15 16  2  0  0  0  0
 15 29  1  0  0  0  0
 16 17  1  0  0  0  0
 16 30  1  0  0  0  0
 17 18  1  0  0  0  0
M  END
$$$$
