ZINC000000010761      none
 OpenBabel11202420153D

 24 25  0  0  0  0  0  0  0  0999 V2000
   32.6949   38.2719   58.4871 C   0  0  0  0  0  0  0  0  0  0  0  0
   32.8513   36.8274   58.0872 C   0  0  0  0  0  0  0  0  0  0  0  0
   33.4055   36.5208   56.8913 C   0  0  0  0  0  0  0  0  0  0  0  0
   33.5497   35.1816   56.5074 C   0  0  0  0  0  0  0  0  0  0  0  0
   33.1387   34.1920   57.3520 C   0  0  0  0  0  0  0  0  0  0  0  0
   32.5720   34.5309   58.5919 C   0  0  0  0  0  0  0  0  0  0  0  0
   32.1715   33.5576   59.4144 N   0  0  0  0  0  0  0  0  0  0  0  0
   31.6352   33.8203   60.5880 C   0  0  0  0  0  0  0  0  0  0  0  0
   31.4722   35.1508   60.9977 C   0  0  0  0  0  0  0  0  0  0  0  0
   30.8754   35.4672   62.3003 C   0  0  0  0  0  0  0  0  0  0  0  0
   29.5423   35.6337   62.4083 N   0  0  0  0  0  0  0  0  0  0  0  0
   31.5843   35.5793   63.2832 O   0  0  0  0  0  0  0  0  0  0  0  0
   31.8958   36.1827   60.1255 C   0  0  0  0  0  0  0  0  0  0  0  0
   31.7720   37.3528   60.4424 O   0  0  0  0  0  0  0  0  0  0  0  0
   32.4394   35.8461   58.9357 N   0  0  0  0  0  0  0  0  0  0  0  0
   33.1999   38.4423   59.4379 H   0  0  0  0  0  0  0  0  0  0  0  0
   33.1360   38.9106   57.7218 H   0  0  0  0  0  0  0  0  0  0  0  0
   31.6358   38.5076   58.5909 H   0  0  0  0  0  0  0  0  0  0  0  0
   33.7322   37.3097   56.2300 H   0  0  0  0  0  0  0  0  0  0  0  0
   33.9872   34.9341   55.5515 H   0  0  0  0  0  0  0  0  0  0  0  0
   33.2485   33.1553   57.0695 H   0  0  0  0  0  0  0  0  0  0  0  0
   31.3213   33.0128   61.2330 H   0  0  0  0  0  0  0  0  0  0  0  0
   28.9694   35.4692   61.6430 H   0  0  0  0  0  0  0  0  0  0  0  0
   29.1558   35.9180   63.2513 H   0  0  0  0  0  0  0  0  0  0  0  0
  1  2  1  0  0  0  0
  1 16  1  0  0  0  0
  1 17  1  0  0  0  0
  1 18  1  0  0  0  0
  2 15  1  0  0  0  0
  2  3  2  0  0  0  0
  3  4  1  0  0  0  0
  3 19  1  0  0  0  0
  4  5  2  0  0  0  0
  4 20  1  0  0  0  0
  5  6  1  0  0  0  0
  5 21  1  0  0  0  0
  6 15  1  0  0  0  0
  6  7  2  0  0  0  0
  7  8  1  0  0  0  0
  8  9  2  0  0  0  0
  8 22  1  0  0  0  0
  9 10  1  0  0  0  0
  9 13  1  0  0  0  0
 10 11  1  0  0  0  0
 10 12  2  0  0  0  0
 11 23  1  0  0  0  0
 11 24  1  0  0  0  0
 13 14  2  0  0  0  0
 13 15  1  0  0  0  0
M  END
$$$$
