ZINC000000017071      none
 OpenBabel11202420153D

 45 47  0  0  0  0  0  0  0  0999 V2000
   31.2800   35.2014   63.3675 O   0  0  0  0  0  0  0  0  0  0  0  0
   31.3953   36.3815   63.1126 C   0  0  0  0  0  0  0  0  0  0  0  0
   31.8224   37.3464   64.1885 C   0  0  0  0  0  0  0  0  0  0  0  0
   32.0446   36.5855   65.4972 C   0  0  0  0  0  0  0  0  0  0  0  0
   30.6960   36.3268   66.1720 C   0  0  0  0  0  0  0  0  0  0  0  0
   30.9182   35.5659   67.4806 C   0  0  0  0  0  0  0  0  0  0  0  0
   31.8025   36.3986   68.4109 C   0  0  0  0  0  0  0  0  0  0  0  0
   33.1511   36.6573   67.7362 C   0  0  0  0  0  0  0  0  0  0  0  0
   32.9289   37.4182   66.4275 C   0  0  0  0  0  0  0  0  0  0  0  0
   31.1414   36.8300   61.8675 N   0  0  0  0  0  0  0  0  0  0  0  0
   30.7237   35.9014   60.8081 C   0  0  0  0  0  0  0  0  0  0  0  0
   31.6575   36.0729   59.6057 C   0  0  0  0  0  0  0  0  0  0  0  0
   31.6728   37.5435   59.1825 C   0  0  0  0  0  0  0  0  0  0  0  0
   32.5640   37.7102   57.9787 C   0  0  0  0  0  0  0  0  0  0  0  0
   33.2755   38.8060   57.6524 C   0  0  0  0  0  0  0  0  0  0  0  0
   33.9383   38.5469   56.5153 N   0  0  0  0  0  0  0  0  0  0  0  0
   33.6583   37.3350   56.1205 C   0  0  0  0  0  0  0  0  0  0  0  0
   32.8064   36.7767   57.0073 N   0  0  0  0  0  0  0  0  0  0  0  0
   32.4353   35.8816   56.9639 H   0  0  0  0  0  0  0  0  0  0  0  0
   32.2043   38.4014   60.3330 C   0  0  0  0  0  0  0  0  0  0  0  0
   31.2766   38.2567   61.5435 C   0  0  0  0  0  0  0  0  0  0  0  0
   32.7499   37.8355   63.8907 H   0  0  0  0  0  0  0  0  0  0  0  0
   31.0456   38.0974   64.3323 H   0  0  0  0  0  0  0  0  0  0  0  0
   32.5336   35.6345   65.2861 H   0  0  0  0  0  0  0  0  0  0  0  0
   30.2070   37.2777   66.3832 H   0  0  0  0  0  0  0  0  0  0  0  0
   30.0660   35.7335   65.5091 H   0  0  0  0  0  0  0  0  0  0  0  0
   31.4072   34.6149   67.2694 H   0  0  0  0  0  0  0  0  0  0  0  0
   29.9575   35.3815   67.9614 H   0  0  0  0  0  0  0  0  0  0  0  0
   31.9609   35.8565   69.3432 H   0  0  0  0  0  0  0  0  0  0  0  0
   31.3136   37.3496   68.6221 H   0  0  0  0  0  0  0  0  0  0  0  0
   33.6402   35.7064   67.5250 H   0  0  0  0  0  0  0  0  0  0  0  0
   33.7810   37.2505   68.3990 H   0  0  0  0  0  0  0  0  0  0  0  0
   33.8897   37.6026   65.9468 H   0  0  0  0  0  0  0  0  0  0  0  0
   32.4399   38.3692   66.6387 H   0  0  0  0  0  0  0  0  0  0  0  0
   29.6992   36.1244   60.5098 H   0  0  0  0  0  0  0  0  0  0  0  0
   30.7829   34.8763   61.1735 H   0  0  0  0  0  0  0  0  0  0  0  0
   31.3010   35.4598   58.7780 H   0  0  0  0  0  0  0  0  0  0  0  0
   32.6656   35.7627   59.8805 H   0  0  0  0  0  0  0  0  0  0  0  0
   30.6604   37.8598   58.9313 H   0  0  0  0  0  0  0  0  0  0  0  0
   33.3092   39.7301   58.2101 H   0  0  0  0  0  0  0  0  0  0  0  0
   34.0471   36.8561   55.2340 H   0  0  0  0  0  0  0  0  0  0  0  0
   33.2072   38.0693   60.6013 H   0  0  0  0  0  0  0  0  0  0  0  0
   32.2372   39.4459   60.0230 H   0  0  0  0  0  0  0  0  0  0  0  0
   30.2972   38.6718   61.3051 H   0  0  0  0  0  0  0  0  0  0  0  0
   31.7002   38.7866   62.3965 H   0  0  0  0  0  0  0  0  0  0  0  0
  1  2  2  0  0  0  0
  2  3  1  0  0  0  0
  2 10  1  0  0  0  0
  3  4  1  0  0  0  0
  3 22  1  0  0  0  0
  3 23  1  0  0  0  0
  4  9  1  0  0  0  0
  4  5  1  0  0  0  0
  4 24  1  0  0  0  0
  5  6  1  0  0  0  0
  5 25  1  0  0  0  0
  5 26  1  0  0  0  0
  6  7  1  0  0  0  0
  6 27  1  0  0  0  0
  6 28  1  0  0  0  0
  7  8  1  0  0  0  0
  7 29  1  0  0  0  0
  7 30  1  0  0  0  0
  8  9  1  0  0  0  0
  8 31  1  0  0  0  0
  8 32  1  0  0  0  0
  9 33  1  0  0  0  0
  9 34  1  0  0  0  0
 10 21  1  0  0  0  0
 10 11  1  0  0  0  0
 11 12  1  0  0  0  0
 11 35  1  0  0  0  0
 11 36  1  0  0  0  0
 12 13  1  0  0  0  0
 12 37  1  0  0  0  0
 12 38  1  0  0  0  0
 13 14  1  0  0  0  0
 13 20  1  0  0  0  0
 13 39  1  0  0  0  0
 14 18  1  0  0  0  0
 14 15  2  0  0  0  0
 15 16  1  0  0  0  0
 15 40  1  0  0  0  0
 16 17  2  0  0  0  0
 17 18  1  0  0  0  0
 17 41  1  0  0  0  0
 18 19  1  0  0  0  0
 20 21  1  0  0  0  0
 20 42  1  0  0  0  0
 20 43  1  0  0  0  0
 21 44  1  0  0  0  0
 21 45  1  0  0  0  0
M  END
$$$$
