ZINC000000002121      none
 OpenBabel11202420153D

 44 47  0  0  1  0  0  0  0  0999 V2000
   31.1667   36.3535   69.0890 C   0  0  0  0  0  0  0  0  0  0  0  0
   31.6022   37.7559   69.4273 C   0  0  0  0  0  0  0  0  0  0  0  0
   31.4613   38.1793   70.5556 O   0  0  0  0  0  0  0  0  0  0  0  0
   32.1483   38.5399   68.4766 N   0  0  0  0  0  0  0  0  0  0  0  0
   32.3120   38.0523   67.1721 N   0  0  0  0  0  0  0  0  0  0  0  0
   31.5153   38.4707   66.2216 C   0  0  0  0  0  0  0  0  0  0  0  0
   31.6928   37.9956   64.8315 C   0  0  0  0  0  0  0  0  0  0  0  0
   31.3328   38.8158   63.7608 C   0  0  0  0  0  0  0  0  0  0  0  0
   31.5052   38.3731   62.4675 C   0  0  0  0  0  0  0  0  0  0  0  0
   32.0260   37.1059   62.2283 C   0  0  0  0  0  0  0  0  0  0  0  0
   32.1934   36.6581   60.9179 N   0  0  0  0  0  0  0  0  0  0  0  0
   32.3797   36.2843   63.2931 C   0  0  0  0  0  0  0  0  0  0  0  0
   32.2153   36.7241   64.5885 C   0  0  0  0  0  0  0  0  0  0  0  0
   30.4357   39.4249   66.5548 C   0  0  0  0  0  0  0  0  0  0  0  0
   29.1259   39.1683   66.1472 C   0  0  0  0  0  0  0  0  0  0  0  0
   28.1129   40.0472   66.4808 C   0  0  0  0  0  0  0  0  0  0  0  0
   28.3965   41.1845   67.2368 C   0  0  0  0  0  0  0  0  0  0  0  0
   29.6981   41.4416   67.6415 C   0  0  0  0  0  0  0  0  0  0  0  0
   30.7143   40.5775   67.2981 C   0  0  0  0  0  0  0  0  0  0  0  0
   32.1369   40.8722   67.7071 C   0  0  0  0  0  0  0  0  0  0  0  0
   32.5699   39.8976   68.8021 C   0  0  2  0  0  0  0  0  0  0  0  0
   32.1191   40.1968   69.7483 H   0  0  0  0  0  0  0  0  0  0  0  0
   34.0936   39.9341   68.9362 C   0  0  0  0  0  0  0  0  0  0  0  0
   27.2354   41.8718   67.4420 O   0  0  0  0  0  0  0  0  0  0  0  0
   26.1786   40.9386   67.1508 C   0  0  0  0  0  0  0  0  0  0  0  0
   26.7753   40.0293   66.2073 O   0  0  0  0  0  0  0  0  0  0  0  0
   31.3711   36.1535   68.0371 H   0  0  0  0  0  0  0  0  0  0  0  0
   31.7159   35.6433   69.7072 H   0  0  0  0  0  0  0  0  0  0  0  0
   30.0983   36.2493   69.2777 H   0  0  0  0  0  0  0  0  0  0  0  0
   30.9243   39.7982   63.9460 H   0  0  0  0  0  0  0  0  0  0  0  0
   31.2313   39.0092   61.6386 H   0  0  0  0  0  0  0  0  0  0  0  0
   32.5562   35.7742   60.7501 H   0  0  0  0  0  0  0  0  0  0  0  0
   31.9470   37.2304   60.1745 H   0  0  0  0  0  0  0  0  0  0  0  0
   32.7839   35.3007   63.1045 H   0  0  0  0  0  0  0  0  0  0  0  0
   32.4909   36.0860   65.4150 H   0  0  0  0  0  0  0  0  0  0  0  0
   28.9039   38.2827   65.5704 H   0  0  0  0  0  0  0  0  0  0  0  0
   29.9157   42.3222   68.2275 H   0  0  0  0  0  0  0  0  0  0  0  0
   32.2020   41.8931   68.0837 H   0  0  0  0  0  0  0  0  0  0  0  0
   32.7924   40.7618   66.8432 H   0  0  0  0  0  0  0  0  0  0  0  0
   34.5487   39.6259   67.9950 H   0  0  0  0  0  0  0  0  0  0  0  0
   34.4127   40.9476   69.1795 H   0  0  0  0  0  0  0  0  0  0  0  0
   34.4048   39.2549   69.7299 H   0  0  0  0  0  0  0  0  0  0  0  0
   25.3275   41.4514   66.7027 H   0  0  0  0  0  0  0  0  0  0  0  0
   25.8757   40.4089   68.0541 H   0  0  0  0  0  0  0  0  0  0  0  0
  1  2  1  0  0  0  0
  1 27  1  0  0  0  0
  1 28  1  0  0  0  0
  1 29  1  0  0  0  0
  2  3  2  0  0  0  0
  2  4  1  0  0  0  0
  4 21  1  0  0  0  0
  4  5  1  0  0  0  0
  5  6  2  0  0  0  0
  6  7  1  0  0  0  0
  6 14  1  0  0  0  0
  7 13  2  0  0  0  0
  7  8  1  0  0  0  0
  8  9  2  0  0  0  0
  8 30  1  0  0  0  0
  9 10  1  0  0  0  0
  9 31  1  0  0  0  0
 10 11  1  0  0  0  0
 10 12  2  0  0  0  0
 11 32  1  0  0  0  0
 11 33  1  0  0  0  0
 12 13  1  0  0  0  0
 12 34  1  0  0  0  0
 13 35  1  0  0  0  0
 14 19  2  0  0  0  0
 14 15  1  0  0  0  0
 15 16  2  0  0  0  0
 15 36  1  0  0  0  0
 16 26  1  0  0  0  0
 16 17  1  0  0  0  0
 17 18  2  0  0  0  0
 17 24  1  0  0  0  0
 18 19  1  0  0  0  0
 18 37  1  0  0  0  0
 19 20  1  0  0  0  0
 20 21  1  0  0  0  0
 20 38  1  0  0  0  0
 20 39  1  0  0  0  0
 21 22  1  1  0  0  0
 21 23  1  0  0  0  0
 23 40  1  0  0  0  0
 23 41  1  0  0  0  0
 23 42  1  0  0  0  0
 24 25  1  0  0  0  0
 25 26  1  0  0  0  0
 25 43  1  0  0  0  0
 25 44  1  0  0  0  0
M  END
$$$$
