ZINC000000039741      none
 OpenBabel11202420153D

 27 28  0  0  0  0  0  0  0  0999 V2000
   33.2585   40.9795   59.1833 N   0  0  0  0  0  0  0  0  0  0  0  0
   33.1070   39.6465   58.7990 C   0  0  0  0  0  0  0  0  0  0  0  0
   33.2584   39.1822   57.5769 N   0  0  0  0  0  0  0  0  0  0  0  0
   33.0156   37.8000   57.6326 N   0  0  0  0  0  0  0  0  0  0  0  0
   33.0494   37.1732   56.8931 H   0  0  0  0  0  0  0  0  0  0  0  0
   32.7257   37.5171   58.9231 C   0  0  0  0  0  0  0  0  0  0  0  0
   32.3997   36.1834   59.4682 C   0  0  0  0  0  0  0  0  0  0  0  0
   32.3754   35.2156   58.7331 O   0  0  0  0  0  0  0  0  0  0  0  0
   32.1290   36.0396   60.7807 N   0  0  0  0  0  0  0  0  0  0  0  0
   32.1603   37.1987   61.6829 C   0  0  0  0  0  0  0  0  0  0  0  0
   30.8218   37.2701   62.4334 C   0  0  0  0  0  0  0  0  0  0  0  0
   30.5654   35.9346   63.1353 C   0  0  0  0  0  0  0  0  0  0  0  0
   30.4739   34.8177   62.0929 C   0  0  0  0  0  0  0  0  0  0  0  0
   31.8030   34.7196   61.3375 C   0  0  0  0  0  0  0  0  0  0  0  0
   32.7861   38.6419   59.6090 N   0  0  0  0  0  0  0  0  0  0  0  0
   33.1273   41.2351   60.1097 H   0  0  0  0  0  0  0  0  0  0  0  0
   33.4951   41.6504   58.5239 H   0  0  0  0  0  0  0  0  0  0  0  0
   32.9766   37.0848   62.3961 H   0  0  0  0  0  0  0  0  0  0  0  0
   32.3043   38.1099   61.1022 H   0  0  0  0  0  0  0  0  0  0  0  0
   30.0160   37.4704   61.7272 H   0  0  0  0  0  0  0  0  0  0  0  0
   30.8635   38.0684   63.1744 H   0  0  0  0  0  0  0  0  0  0  0  0
   29.6294   35.9902   63.6910 H   0  0  0  0  0  0  0  0  0  0  0  0
   31.3838   35.7229   63.8233 H   0  0  0  0  0  0  0  0  0  0  0  0
   29.6714   35.0412   61.3899 H   0  0  0  0  0  0  0  0  0  0  0  0
   30.2680   33.8706   62.5916 H   0  0  0  0  0  0  0  0  0  0  0  0
   31.7110   33.9945   60.5290 H   0  0  0  0  0  0  0  0  0  0  0  0
   32.5908   34.4075   62.0232 H   0  0  0  0  0  0  0  0  0  0  0  0
  1  2  1  0  0  0  0
  1 16  1  0  0  0  0
  1 17  1  0  0  0  0
  2 15  1  0  0  0  0
  2  3  2  0  0  0  0
  3  4  1  0  0  0  0
  4  5  1  0  0  0  0
  4  6  1  0  0  0  0
  6  7  1  0  0  0  0
  6 15  2  0  0  0  0
  7  8  2  0  0  0  0
  7  9  1  0  0  0  0
  9 14  1  0  0  0  0
  9 10  1  0  0  0  0
 10 11  1  0  0  0  0
 10 18  1  0  0  0  0
 10 19  1  0  0  0  0
 11 12  1  0  0  0  0
 11 20  1  0  0  0  0
 11 21  1  0  0  0  0
 12 13  1  0  0  0  0
 12 22  1  0  0  0  0
 12 23  1  0  0  0  0
 13 14  1  0  0  0  0
 13 24  1  0  0  0  0
 13 25  1  0  0  0  0
 14 26  1  0  0  0  0
 14 27  1  0  0  0  0
M  END
$$$$
