ZINC000000009589      none
 OpenBabel11202420153D

 37 38  0  0  1  0  0  0  0  0999 V2000
   30.8728   33.9583   59.4022 C   0  0  0  0  0  0  0  0  0  0  0  0
   32.0234   34.7979   59.9608 C   0  0  2  0  0  0  0  0  0  0  0  0
   32.8871   34.1574   60.1397 H   0  0  0  0  0  0  0  0  0  0  0  0
   31.5956   35.4378   61.2564 C   0  0  0  0  0  0  0  0  0  0  0  0
   30.4301   35.7203   61.4373 O   0  0  0  0  0  0  0  0  0  0  0  0
   32.5081   35.6961   62.2139 N   0  0  0  0  0  0  0  0  0  0  0  0
   32.0923   36.3182   63.4735 C   0  0  0  0  0  0  0  0  0  0  0  0
   31.0680   35.4212   64.1715 C   0  0  0  0  0  0  0  0  0  0  0  0
   30.6337   36.0710   65.4868 C   0  0  0  0  0  0  0  0  0  0  0  0
   30.0042   37.4353   65.1983 C   0  0  0  0  0  0  0  0  0  0  0  0
   31.0286   38.3322   64.5003 C   0  0  0  0  0  0  0  0  0  0  0  0
   31.4628   37.6825   63.1850 C   0  0  0  0  0  0  0  0  0  0  0  0
   32.3906   35.8705   58.9680 C   0  0  0  0  0  0  0  0  0  0  0  0
   32.8197   35.5395   57.6918 C   0  0  0  0  0  0  0  0  0  0  0  0
   33.1430   36.5505   56.8067 C   0  0  0  0  0  0  0  0  0  0  0  0
   33.0572   37.8160   57.1675 N   0  0  0  0  0  0  0  0  0  0  0  0
   32.6583   38.1675   58.3743 C   0  0  0  0  0  0  0  0  0  0  0  0
   32.3129   37.2117   59.3110 C   0  0  0  0  0  0  0  0  0  0  0  0
   30.0092   34.5988   59.2232 H   0  0  0  0  0  0  0  0  0  0  0  0
   30.6073   33.1825   60.1203 H   0  0  0  0  0  0  0  0  0  0  0  0
   31.1823   33.4954   58.4651 H   0  0  0  0  0  0  0  0  0  0  0  0
   33.4403   35.4702   62.0692 H   0  0  0  0  0  0  0  0  0  0  0  0
   32.9610   36.4480   64.1187 H   0  0  0  0  0  0  0  0  0  0  0  0
   30.1992   35.2914   63.5261 H   0  0  0  0  0  0  0  0  0  0  0  0
   31.5164   34.4493   64.3770 H   0  0  0  0  0  0  0  0  0  0  0  0
   31.5024   36.2008   66.1322 H   0  0  0  0  0  0  0  0  0  0  0  0
   29.9039   35.4320   65.9841 H   0  0  0  0  0  0  0  0  0  0  0  0
   29.6949   37.8982   66.1354 H   0  0  0  0  0  0  0  0  0  0  0  0
   29.1354   37.3055   64.5529 H   0  0  0  0  0  0  0  0  0  0  0  0
   31.8973   38.4620   65.1457 H   0  0  0  0  0  0  0  0  0  0  0  0
   30.5801   39.3042   64.2948 H   0  0  0  0  0  0  0  0  0  0  0  0
   32.1926   38.3215   62.6877 H   0  0  0  0  0  0  0  0  0  0  0  0
   30.5941   37.5526   62.5396 H   0  0  0  0  0  0  0  0  0  0  0  0
   32.8965   34.5049   57.3919 H   0  0  0  0  0  0  0  0  0  0  0  0
   33.4735   36.3012   55.8092 H   0  0  0  0  0  0  0  0  0  0  0  0
   32.6005   39.2143   58.6335 H   0  0  0  0  0  0  0  0  0  0  0  0
   31.9864   37.5059   60.2975 H   0  0  0  0  0  0  0  0  0  0  0  0
  1  2  1  0  0  0  0
  1 19  1  0  0  0  0
  1 20  1  0  0  0  0
  1 21  1  0  0  0  0
  2  3  1  1  0  0  0
  2  4  1  0  0  0  0
  2 13  1  0  0  0  0
  4  5  2  0  0  0  0
  4  6  1  0  0  0  0
  6  7  1  0  0  0  0
  6 22  1  0  0  0  0
  7 12  1  0  0  0  0
  7  8  1  0  0  0  0
  7 23  1  0  0  0  0
  8  9  1  0  0  0  0
  8 24  1  0  0  0  0
  8 25  1  0  0  0  0
  9 10  1  0  0  0  0
  9 26  1  0  0  0  0
  9 27  1  0  0  0  0
 10 11  1  0  0  0  0
 10 28  1  0  0  0  0
 10 29  1  0  0  0  0
 11 12  1  0  0  0  0
 11 30  1  0  0  0  0
 11 31  1  0  0  0  0
 12 32  1  0  0  0  0
 12 33  1  0  0  0  0
 13 18  2  0  0  0  0
 13 14  1  0  0  0  0
 14 15  2  0  0  0  0
 14 34  1  0  0  0  0
 15 16  1  0  0  0  0
 15 35  1  0  0  0  0
 16 17  2  0  0  0  0
 17 18  1  0  0  0  0
 17 36  1  0  0  0  0
 18 37  1  0  0  0  0
M  END
$$$$
