ZINC000000045196      none
 OpenBabel11202420153D

 47 48  0  0  0  0  0  0  0  0999 V2000
   34.6478   39.2992   54.1151 C   0  0  0  0  0  0  0  0  0  0  0  0
   34.1931   38.0853   54.7167 O   0  0  0  0  0  0  0  0  0  0  0  0
   33.8286   38.1438   56.0252 C   0  0  0  0  0  0  0  0  0  0  0  0
   33.3783   37.0014   56.6709 C   0  0  0  0  0  0  0  0  0  0  0  0
   33.0125   37.0564   58.0022 C   0  0  0  0  0  0  0  0  0  0  0  0
   33.0850   38.2568   58.6932 C   0  0  0  0  0  0  0  0  0  0  0  0
   32.7090   38.3135   60.0437 N   0  0  0  0  0  0  0  0  0  0  0  0
   31.7628   37.4778   60.5154 C   0  0  0  0  0  0  0  0  0  0  0  0
   31.2360   36.6767   59.7724 O   0  0  0  0  0  0  0  0  0  0  0  0
   31.3589   37.5387   61.9660 C   0  0  0  0  0  0  0  0  0  0  0  0
   32.1818   36.6525   62.7274 O   0  0  0  0  0  0  0  0  0  0  0  0
   31.6282   36.0972   63.8374 C   0  0  0  0  0  0  0  0  0  0  0  0
   30.9559   34.8868   63.7473 C   0  0  0  0  0  0  0  0  0  0  0  0
   30.3937   34.3248   64.8769 C   0  0  0  0  0  0  0  0  0  0  0  0
   30.5009   34.9675   66.0970 C   0  0  0  0  0  0  0  0  0  0  0  0
   31.1700   36.1734   66.1890 C   0  0  0  0  0  0  0  0  0  0  0  0
   31.7341   36.7398   65.0621 C   0  0  0  0  0  0  0  0  0  0  0  0
   32.4640   38.0544   65.1635 C   0  0  0  0  0  0  0  0  0  0  0  0
   31.5064   39.1311   65.6777 C   0  0  0  0  0  0  0  0  0  0  0  0
   33.6389   37.9117   66.1329 C   0  0  0  0  0  0  0  0  0  0  0  0
   33.5369   39.4047   58.0465 C   0  0  0  0  0  0  0  0  0  0  0  0
   33.6143   40.5816   58.7230 O   0  0  0  0  0  0  0  0  0  0  0  0
   34.8456   40.8668   59.3900 C   0  0  0  0  0  0  0  0  0  0  0  0
   33.9079   39.3452   56.7133 C   0  0  0  0  0  0  0  0  0  0  0  0
   35.5268   39.6618   54.6479 H   0  0  0  0  0  0  0  0  0  0  0  0
   34.9060   39.1134   53.0725 H   0  0  0  0  0  0  0  0  0  0  0  0
   33.8575   40.0481   54.1658 H   0  0  0  0  0  0  0  0  0  0  0  0
   33.3173   36.0668   56.1332 H   0  0  0  0  0  0  0  0  0  0  0  0
   32.6665   36.1649   58.5041 H   0  0  0  0  0  0  0  0  0  0  0  0
   33.1302   38.9542   60.6380 H   0  0  0  0  0  0  0  0  0  0  0  0
   30.3151   37.2406   62.0654 H   0  0  0  0  0  0  0  0  0  0  0  0
   31.4828   38.5567   62.3353 H   0  0  0  0  0  0  0  0  0  0  0  0
   30.8717   34.3847   62.7949 H   0  0  0  0  0  0  0  0  0  0  0  0
   29.8664   33.3848   64.8066 H   0  0  0  0  0  0  0  0  0  0  0  0
   30.0606   34.5268   66.9793 H   0  0  0  0  0  0  0  0  0  0  0  0
   31.2517   36.6736   67.1428 H   0  0  0  0  0  0  0  0  0  0  0  0
   32.8371   38.3396   64.1798 H   0  0  0  0  0  0  0  0  0  0  0  0
   32.0344   40.0818   65.7510 H   0  0  0  0  0  0  0  0  0  0  0  0
   30.6692   39.2327   64.9869 H   0  0  0  0  0  0  0  0  0  0  0  0
   31.1333   38.8459   66.6613 H   0  0  0  0  0  0  0  0  0  0  0  0
   34.3212   37.1446   65.7666 H   0  0  0  0  0  0  0  0  0  0  0  0
   34.1670   38.8625   66.2063 H   0  0  0  0  0  0  0  0  0  0  0  0
   33.2660   37.6265   67.1166 H   0  0  0  0  0  0  0  0  0  0  0  0
   34.7730   41.8331   59.8891 H   0  0  0  0  0  0  0  0  0  0  0  0
   35.0470   40.0907   60.1283 H   0  0  0  0  0  0  0  0  0  0  0  0
   35.6556   40.8941   58.6612 H   0  0  0  0  0  0  0  0  0  0  0  0
   34.2582   40.2341   56.2098 H   0  0  0  0  0  0  0  0  0  0  0  0
  1  2  1  0  0  0  0
  1 25  1  0  0  0  0
  1 26  1  0  0  0  0
  1 27  1  0  0  0  0
  2  3  1  0  0  0  0
  3 24  2  0  0  0  0
  3  4  1  0  0  0  0
  4  5  2  0  0  0  0
  4 28  1  0  0  0  0
  5  6  1  0  0  0  0
  5 29  1  0  0  0  0
  6  7  1  0  0  0  0
  6 21  2  0  0  0  0
  7  8  1  0  0  0  0
  7 30  1  0  0  0  0
  8  9  2  0  0  0  0
  8 10  1  0  0  0  0
 10 11  1  0  0  0  0
 10 31  1  0  0  0  0
 10 32  1  0  0  0  0
 11 12  1  0  0  0  0
 12 17  2  0  0  0  0
 12 13  1  0  0  0  0
 13 14  2  0  0  0  0
 13 33  1  0  0  0  0
 14 15  1  0  0  0  0
 14 34  1  0  0  0  0
 15 16  2  0  0  0  0
 15 35  1  0  0  0  0
 16 17  1  0  0  0  0
 16 36  1  0  0  0  0
 17 18  1  0  0  0  0
 18 19  1  0  0  0  0
 18 20  1  0  0  0  0
 18 37  1  0  0  0  0
 19 38  1  0  0  0  0
 19 39  1  0  0  0  0
 19 40  1  0  0  0  0
 20 41  1  0  0  0  0
 20 42  1  0  0  0  0
 20 43  1  0  0  0  0
 21 22  1  0  0  0  0
 21 24  1  0  0  0  0
 22 23  1  0  0  0  0
 23 44  1  0  0  0  0
 23 45  1  0  0  0  0
 23 46  1  0  0  0  0
 24 47  1  0  0  0  0
M  END
$$$$
