ZINC000000055693      none
 OpenBabel11202420153D

 25 27  0  0  0  0  0  0  0  0999 V2000
   34.7120   37.9889   54.3352 O   0  0  0  0  0  0  0  0  0  0  0  0
   34.1302   37.9082   55.4058 C   0  0  0  0  0  0  0  0  0  0  0  0
   33.6926   39.1168   56.1141 C   0  0  0  0  0  0  0  0  0  0  0  0
   33.0725   38.9983   57.2463 N   0  0  0  0  0  0  0  0  0  0  0  0
   32.8199   37.7171   57.8046 N   0  0  0  0  0  0  0  0  0  0  0  0
   32.1883   37.4937   58.9666 C   0  0  0  0  0  0  0  0  0  0  0  0
   31.7688   38.4051   59.6550 O   0  0  0  0  0  0  0  0  0  0  0  0
   32.0326   36.0976   59.3597 C   0  0  0  0  0  0  0  0  0  0  0  0
   31.4370   35.6083   60.4783 C   0  0  0  0  0  0  0  0  0  0  0  0
   31.0140   36.5244   61.5458 C   0  0  0  0  0  0  0  0  0  0  0  0
   31.8930   36.8449   62.5873 C   0  0  0  0  0  0  0  0  0  0  0  0
   31.4910   37.7100   63.5817 C   0  0  0  0  0  0  0  0  0  0  0  0
   30.2162   38.2529   63.5591 C   0  0  0  0  0  0  0  0  0  0  0  0
   29.7163   39.3356   64.8206 Cl  0  0  0  0  0  0  0  0  0  0  0  0
   29.3383   37.9357   62.5349 C   0  0  0  0  0  0  0  0  0  0  0  0
   29.7278   37.0770   61.5299 C   0  0  0  0  0  0  0  0  0  0  0  0
   32.7971   35.1848   58.0473 S   0  0  0  0  0  0  0  0  0  0  0  0
   33.2486   36.6231   57.1147 C   0  0  0  0  0  0  0  0  0  0  0  0
   33.8821   36.7179   55.9597 N   0  0  0  0  0  0  0  0  0  0  0  0
   33.8813   40.0939   55.6947 H   0  0  0  0  0  0  0  0  0  0  0  0
   31.2746   34.5457   60.5829 H   0  0  0  0  0  0  0  0  0  0  0  0
   32.8852   36.4189   62.6087 H   0  0  0  0  0  0  0  0  0  0  0  0
   32.1695   37.9620   64.3832 H   0  0  0  0  0  0  0  0  0  0  0  0
   28.3465   38.3628   62.5240 H   0  0  0  0  0  0  0  0  0  0  0  0
   29.0425   36.8308   60.7324 H   0  0  0  0  0  0  0  0  0  0  0  0
  1  2  2  0  0  0  0
  2 19  1  0  0  0  0
  2  3  1  0  0  0  0
  3  4  2  0  0  0  0
  3 20  1  0  0  0  0
  4  5  1  0  0  0  0
  5 18  1  0  0  0  0
  5  6  1  0  0  0  0
  6  7  2  0  0  0  0
  6  8  1  0  0  0  0
  8  9  2  0  0  0  0
  8 17  1  0  0  0  0
  9 10  1  0  0  0  0
  9 21  1  0  0  0  0
 10 16  2  0  0  0  0
 10 11  1  0  0  0  0
 11 12  2  0  0  0  0
 11 22  1  0  0  0  0
 12 13  1  0  0  0  0
 12 23  1  0  0  0  0
 13 14  1  0  0  0  0
 13 15  2  0  0  0  0
 15 16  1  0  0  0  0
 15 24  1  0  0  0  0
 16 25  1  0  0  0  0
 17 18  1  0  0  0  0
 18 19  2  0  0  0  0
M  END
$$$$
