ZINC000000046047      none
 OpenBabel11202420153D

 30 31  0  0  0  0  0  0  0  0999 V2000
   34.1111   37.0355   55.1637 C   0  0  0  0  0  0  0  0  0  0  0  0
   33.4446   37.2533   56.4976 C   0  0  0  0  0  0  0  0  0  0  0  0
   33.2469   38.5401   56.9667 C   0  0  0  0  0  0  0  0  0  0  0  0
   32.6428   38.7469   58.1892 C   0  0  0  0  0  0  0  0  0  0  0  0
   32.2245   37.6539   58.9521 C   0  0  0  0  0  0  0  0  0  0  0  0
   31.6248   37.8523   60.1662 N   0  0  0  0  0  0  0  0  0  0  0  0
   32.1616   37.3589   61.2468 C   0  0  0  0  0  0  0  0  0  0  0  0
   31.5170   37.5722   62.5517 C   0  0  0  0  0  0  0  0  0  0  0  0
   30.7600   38.7263   62.7798 C   0  0  0  0  0  0  0  0  0  0  0  0
   30.1573   38.9237   64.0028 C   0  0  0  0  0  0  0  0  0  0  0  0
   30.2993   37.9801   65.0112 C   0  0  0  0  0  0  0  0  0  0  0  0
   29.7032   38.1805   66.2153 O   0  0  0  0  0  0  0  0  0  0  0  0
   31.0518   36.8274   64.7915 C   0  0  0  0  0  0  0  0  0  0  0  0
   31.1881   35.9053   65.7818 O   0  0  0  0  0  0  0  0  0  0  0  0
   31.6547   36.6188   63.5663 C   0  0  0  0  0  0  0  0  0  0  0  0
   32.4215   36.3581   58.4707 C   0  0  0  0  0  0  0  0  0  0  0  0
   33.0276   36.1655   57.2453 C   0  0  0  0  0  0  0  0  0  0  0  0
   33.2958   34.4118   56.5906 Br  0  0  0  0  0  0  0  0  0  0  0  0
   33.3551   37.0158   54.3787 H   0  0  0  0  0  0  0  0  0  0  0  0
   34.8132   37.8467   54.9715 H   0  0  0  0  0  0  0  0  0  0  0  0
   34.6469   36.0864   55.1759 H   0  0  0  0  0  0  0  0  0  0  0  0
   33.5710   39.3844   56.3764 H   0  0  0  0  0  0  0  0  0  0  0  0
   32.4937   39.7516   58.5561 H   0  0  0  0  0  0  0  0  0  0  0  0
   33.0796   36.7935   61.1840 H   0  0  0  0  0  0  0  0  0  0  0  0
   30.6483   39.4624   61.9973 H   0  0  0  0  0  0  0  0  0  0  0  0
   29.5730   39.8151   64.1778 H   0  0  0  0  0  0  0  0  0  0  0  0
   29.2033   39.0064   66.2740 H   0  0  0  0  0  0  0  0  0  0  0  0
   30.7280   36.1364   66.6004 H   0  0  0  0  0  0  0  0  0  0  0  0
   32.2341   35.7239   63.3933 H   0  0  0  0  0  0  0  0  0  0  0  0
   32.1003   35.5087   59.0552 H   0  0  0  0  0  0  0  0  0  0  0  0
  1  2  1  0  0  0  0
  1 19  1  0  0  0  0
  1 20  1  0  0  0  0
  1 21  1  0  0  0  0
  2 17  2  0  0  0  0
  2  3  1  0  0  0  0
  3  4  2  0  0  0  0
  3 22  1  0  0  0  0
  4  5  1  0  0  0  0
  4 23  1  0  0  0  0
  5  6  1  0  0  0  0
  5 16  2  0  0  0  0
  6  7  2  0  0  0  0
  7  8  1  0  0  0  0
  7 24  1  0  0  0  0
  8 15  2  0  0  0  0
  8  9  1  0  0  0  0
  9 10  2  0  0  0  0
  9 25  1  0  0  0  0
 10 11  1  0  0  0  0
 10 26  1  0  0  0  0
 11 12  1  0  0  0  0
 11 13  2  0  0  0  0
 12 27  1  0  0  0  0
 13 14  1  0  0  0  0
 13 15  1  0  0  0  0
 14 28  1  0  0  0  0
 15 29  1  0  0  0  0
 16 17  1  0  0  0  0
 16 30  1  0  0  0  0
 17 18  1  0  0  0  0
M  END
$$$$
