ZINC000000051416      none
 OpenBabel11202420153D

 25 26  0  0  0  0  0  0  0  0999 V2000
   30.4473   34.4252   63.3791 C   0  0  0  0  0  0  0  0  0  0  0  0
   31.0618   35.6657   63.9745 C   0  0  0  0  0  0  0  0  0  0  0  0
   31.8628   35.6985   65.0042 N   0  0  0  0  0  0  0  0  0  0  0  0
   32.2170   36.9689   65.2489 C   0  0  0  0  0  0  0  0  0  0  0  0
   31.6053   37.7540   64.3417 C   0  0  0  0  0  0  0  0  0  0  0  0
   30.8751   36.9274   63.5310 N   0  0  0  0  0  0  0  0  0  0  0  0
   29.9377   37.3886   62.2461 S   0  0  0  0  0  0  0  0  0  0  0  0
   28.8843   36.4390   62.1566 O   0  0  0  0  0  0  0  0  0  0  0  0
   29.7154   38.7845   62.3920 O   0  0  0  0  0  0  0  0  0  0  0  0
   30.9120   37.1894   60.7915 C   0  0  0  0  0  0  0  0  0  0  0  0
   31.6877   38.2368   60.3307 C   0  0  0  0  0  0  0  0  0  0  0  0
   32.4566   38.0794   59.1931 C   0  0  0  0  0  0  0  0  0  0  0  0
   32.4409   36.8768   58.5089 C   0  0  0  0  0  0  0  0  0  0  0  0
   33.4005   36.6808   57.0756 Cl  0  0  0  0  0  0  0  0  0  0  0  0
   31.6600   35.8309   58.9674 C   0  0  0  0  0  0  0  0  0  0  0  0
   30.8960   35.9877   60.1084 C   0  0  0  0  0  0  0  0  0  0  0  0
   31.1081   34.0259   62.6097 H   0  0  0  0  0  0  0  0  0  0  0  0
   30.3063   33.6784   64.1603 H   0  0  0  0  0  0  0  0  0  0  0  0
   29.4829   34.6742   62.9362 H   0  0  0  0  0  0  0  0  0  0  0  0
   32.8752   37.3037   66.0370 H   0  0  0  0  0  0  0  0  0  0  0  0
   31.6802   38.8287   64.2655 H   0  0  0  0  0  0  0  0  0  0  0  0
   31.6964   39.1768   60.8624 H   0  0  0  0  0  0  0  0  0  0  0  0
   33.0660   38.8963   58.8356 H   0  0  0  0  0  0  0  0  0  0  0  0
   31.6477   34.8919   58.4340 H   0  0  0  0  0  0  0  0  0  0  0  0
   30.2861   35.1714   60.4662 H   0  0  0  0  0  0  0  0  0  0  0  0
  1  2  1  0  0  0  0
  1 17  1  0  0  0  0
  1 18  1  0  0  0  0
  1 19  1  0  0  0  0
  2  6  1  0  0  0  0
  2  3  2  0  0  0  0
  3  4  1  0  0  0  0
  4  5  2  0  0  0  0
  4 20  1  0  0  0  0
  5  6  1  0  0  0  0
  5 21  1  0  0  0  0
  6  7  1  0  0  0  0
  7  8  2  0  0  0  0
  7  9  2  0  0  0  0
  7 10  1  0  0  0  0
 10 16  2  0  0  0  0
 10 11  1  0  0  0  0
 11 12  2  0  0  0  0
 11 22  1  0  0  0  0
 12 13  1  0  0  0  0
 12 23  1  0  0  0  0
 13 14  1  0  0  0  0
 13 15  2  0  0  0  0
 15 16  1  0  0  0  0
 15 24  1  0  0  0  0
 16 25  1  0  0  0  0
M  END
$$$$
