ZINC000000041787      none
 OpenBabel11202420153D

 33 34  0  0  0  0  0  0  0  0999 V2000
   31.6511   39.8333   66.8620 C   0  0  0  0  0  0  0  0  0  0  0  0
   32.4997   38.7539   66.4658 O   0  0  0  0  0  0  0  0  0  0  0  0
   32.3566   38.2910   65.1985 C   0  0  0  0  0  0  0  0  0  0  0  0
   33.1539   37.2407   64.7503 C   0  0  0  0  0  0  0  0  0  0  0  0
   33.0201   36.7664   63.4782 C   0  0  0  0  0  0  0  0  0  0  0  0
   32.0761   37.3354   62.6124 C   0  0  0  0  0  0  0  0  0  0  0  0
   31.9307   36.8283   61.2458 C   0  0  0  0  0  0  0  0  0  0  0  0
   31.6256   35.6689   61.0582 O   0  0  0  0  0  0  0  0  0  0  0  0
   32.1600   37.7463   60.0729 C   0  0  0  0  0  0  0  0  0  0  0  0
   31.9597   37.0241   58.8564 O   0  0  0  0  0  0  0  0  0  0  0  0
   32.6802   37.4240   57.7755 C   0  0  0  0  0  0  0  0  0  0  0  0
   33.0484   36.5021   56.8064 C   0  0  0  0  0  0  0  0  0  0  0  0
   33.7761   36.9118   55.7059 C   0  0  0  0  0  0  0  0  0  0  0  0
   34.1471   38.2381   55.5754 C   0  0  0  0  0  0  0  0  0  0  0  0
   35.1505   38.7943   54.0721 Br  0  0  0  0  0  0  0  0  0  0  0  0
   33.7855   39.1581   56.5433 C   0  0  0  0  0  0  0  0  0  0  0  0
   33.0533   38.7536   57.6427 C   0  0  0  0  0  0  0  0  0  0  0  0
   31.2694   38.3962   63.0622 C   0  0  0  0  0  0  0  0  0  0  0  0
   30.3565   38.9584   62.2318 O   0  0  0  0  0  0  0  0  0  0  0  0
   31.4170   38.8665   64.3557 C   0  0  0  0  0  0  0  0  0  0  0  0
   30.6088   39.5255   66.7786 H   0  0  0  0  0  0  0  0  0  0  0  0
   31.8680   40.1058   67.8948 H   0  0  0  0  0  0  0  0  0  0  0  0
   31.8293   40.6920   66.2145 H   0  0  0  0  0  0  0  0  0  0  0  0
   33.8829   36.7993   65.4138 H   0  0  0  0  0  0  0  0  0  0  0  0
   33.6424   35.9519   63.1379 H   0  0  0  0  0  0  0  0  0  0  0  0
   31.4583   38.5791   60.1208 H   0  0  0  0  0  0  0  0  0  0  0  0
   33.1802   38.1286   60.1048 H   0  0  0  0  0  0  0  0  0  0  0  0
   32.7627   35.4659   56.9102 H   0  0  0  0  0  0  0  0  0  0  0  0
   34.0594   36.1952   54.9492 H   0  0  0  0  0  0  0  0  0  0  0  0
   34.0761   40.1930   56.4395 H   0  0  0  0  0  0  0  0  0  0  0  0
   32.7718   39.4719   58.3984 H   0  0  0  0  0  0  0  0  0  0  0  0
   29.8516   39.6791   62.6326 H   0  0  0  0  0  0  0  0  0  0  0  0
   30.8014   39.6810   64.7082 H   0  0  0  0  0  0  0  0  0  0  0  0
  1  2  1  0  0  0  0
  1 21  1  0  0  0  0
  1 22  1  0  0  0  0
  1 23  1  0  0  0  0
  2  3  1  0  0  0  0
  3 20  2  0  0  0  0
  3  4  1  0  0  0  0
  4  5  2  0  0  0  0
  4 24  1  0  0  0  0
  5  6  1  0  0  0  0
  5 25  1  0  0  0  0
  6  7  1  0  0  0  0
  6 18  2  0  0  0  0
  7  8  2  0  0  0  0
  7  9  1  0  0  0  0
  9 10  1  0  0  0  0
  9 26  1  0  0  0  0
  9 27  1  0  0  0  0
 10 11  1  0  0  0  0
 11 17  2  0  0  0  0
 11 12  1  0  0  0  0
 12 13  2  0  0  0  0
 12 28  1  0  0  0  0
 13 14  1  0  0  0  0
 13 29  1  0  0  0  0
 14 15  1  0  0  0  0
 14 16  2  0  0  0  0
 16 17  1  0  0  0  0
 16 30  1  0  0  0  0
 17 31  1  0  0  0  0
 18 19  1  0  0  0  0
 18 20  1  0  0  0  0
 19 32  1  0  0  0  0
 20 33  1  0  0  0  0
M  END
$$$$
