ZINC000000005653      none
 OpenBabel11202420153D

 34 36  0  0  0  0  0  0  0  0999 V2000
   30.3212   30.6657   67.7291 C   0  0  0  0  0  0  0  0  0  0  0  0
   29.9961   31.9416   66.9960 C   0  0  0  0  0  0  0  0  0  0  0  0
   30.0749   33.1555   67.6527 C   0  0  0  0  0  0  0  0  0  0  0  0
   29.7821   34.3262   66.9786 C   0  0  0  0  0  0  0  0  0  0  0  0
   29.4052   34.2827   65.6494 C   0  0  0  0  0  0  0  0  0  0  0  0
   29.0325   35.7752   64.7900 S   0  0  0  0  0  0  0  0  0  0  0  0
   28.1850   35.4142   63.7079 O   0  0  0  0  0  0  0  0  0  0  0  0
   28.6668   36.7274   65.7794 O   0  0  0  0  0  0  0  0  0  0  0  0
   30.4444   36.3190   64.1169 N   0  0  0  0  0  0  0  0  0  0  0  0
   31.5919   36.6538   64.8128 C   0  0  0  0  0  0  0  0  0  0  0  0
   31.7547   36.5855   66.2635 C   0  0  0  0  0  0  0  0  0  0  0  0
   32.8478   36.3626   66.7419 O   0  0  0  0  0  0  0  0  0  0  0  0
   32.5479   37.0548   63.9273 C   0  0  0  0  0  0  0  0  0  0  0  0
   31.9897   36.9825   62.6301 C   0  0  0  0  0  0  0  0  0  0  0  0
   32.4876   37.2695   61.3514 C   0  0  0  0  0  0  0  0  0  0  0  0
   31.6902   37.0970   60.2582 C   0  0  0  0  0  0  0  0  0  0  0  0
   30.3859   36.6385   60.3988 C   0  0  0  0  0  0  0  0  0  0  0  0
   29.8734   36.3498   61.6436 C   0  0  0  0  0  0  0  0  0  0  0  0
   30.6672   36.5176   62.7751 C   0  0  0  0  0  0  0  0  0  0  0  0
   29.3212   33.0685   64.9942 C   0  0  0  0  0  0  0  0  0  0  0  0
   29.6135   31.8977   65.6683 C   0  0  0  0  0  0  0  0  0  0  0  0
   29.4154   30.2695   68.1882 H   0  0  0  0  0  0  0  0  0  0  0  0
   30.7220   29.9352   67.0266 H   0  0  0  0  0  0  0  0  0  0  0  0
   31.0612   30.8699   68.5029 H   0  0  0  0  0  0  0  0  0  0  0  0
   30.3698   33.1896   68.6911 H   0  0  0  0  0  0  0  0  0  0  0  0
   29.8482   35.2750   67.4904 H   0  0  0  0  0  0  0  0  0  0  0  0
   30.9022   36.7335   66.9100 H   0  0  0  0  0  0  0  0  0  0  0  0
   33.5498   37.3745   64.1728 H   0  0  0  0  0  0  0  0  0  0  0  0
   33.4999   37.6265   61.2322 H   0  0  0  0  0  0  0  0  0  0  0  0
   32.0762   37.3183   59.2742 H   0  0  0  0  0  0  0  0  0  0  0  0
   29.7681   36.5071   59.5229 H   0  0  0  0  0  0  0  0  0  0  0  0
   28.8583   35.9944   61.7421 H   0  0  0  0  0  0  0  0  0  0  0  0
   29.0266   33.0345   63.9556 H   0  0  0  0  0  0  0  0  0  0  0  0
   29.5474   30.9488   65.1566 H   0  0  0  0  0  0  0  0  0  0  0  0
  1  2  1  0  0  0  0
  1 22  1  0  0  0  0
  1 23  1  0  0  0  0
  1 24  1  0  0  0  0
  2 21  2  0  0  0  0
  2  3  1  0  0  0  0
  3  4  2  0  0  0  0
  3 25  1  0  0  0  0
  4  5  1  0  0  0  0
  4 26  1  0  0  0  0
  5  6  1  0  0  0  0
  5 20  2  0  0  0  0
  6  7  2  0  0  0  0
  6  8  2  0  0  0  0
  6  9  1  0  0  0  0
  9 19  1  0  0  0  0
  9 10  1  0  0  0  0
 10 11  1  0  0  0  0
 10 13  2  0  0  0  0
 11 12  2  0  0  0  0
 11 27  1  0  0  0  0
 13 14  1  0  0  0  0
 13 28  1  0  0  0  0
 14 19  2  0  0  0  0
 14 15  1  0  0  0  0
 15 16  2  0  0  0  0
 15 29  1  0  0  0  0
 16 17  1  0  0  0  0
 16 30  1  0  0  0  0
 17 18  2  0  0  0  0
 17 31  1  0  0  0  0
 18 19  1  0  0  0  0
 18 32  1  0  0  0  0
 20 21  1  0  0  0  0
 20 33  1  0  0  0  0
 21 34  1  0  0  0  0
M  END
$$$$
