ZINC000000003827      none
 OpenBabel11202420153D

 30 33  0  0  0  0  0  0  0  0999 V2000
   34.1854   36.2352   53.8115 N   0  0  0  0  0  0  0  0  0  0  0  0
   33.7789   36.3591   55.1402 C   0  0  0  0  0  0  0  0  0  0  0  0
   33.8112   37.6021   55.7648 C   0  0  0  0  0  0  0  0  0  0  0  0
   33.4117   37.7346   57.0757 C   0  0  0  0  0  0  0  0  0  0  0  0
   32.9696   36.6128   57.7876 C   0  0  0  0  0  0  0  0  0  0  0  0
   32.9417   35.3670   57.1478 C   0  0  0  0  0  0  0  0  0  0  0  0
   33.3402   35.2385   55.8422 C   0  0  0  0  0  0  0  0  0  0  0  0
   32.4594   34.1767   57.9452 C   0  0  0  0  0  0  0  0  0  0  0  0
   32.0574   34.4488   59.3386 N   0  0  0  0  0  0  0  0  0  0  0  0
   31.5963   33.6163   60.2942 C   0  0  0  0  0  0  0  0  0  0  0  0
   31.4132   32.4214   60.1648 O   0  0  0  0  0  0  0  0  0  0  0  0
   31.3467   34.3923   61.5204 C   0  0  0  0  0  0  0  0  0  0  0  0
   30.8759   34.0659   62.7877 C   0  0  0  0  0  0  0  0  0  0  0  0
   30.7518   35.0526   63.7477 C   0  0  0  0  0  0  0  0  0  0  0  0
   31.0923   36.3634   63.4584 C   0  0  0  0  0  0  0  0  0  0  0  0
   31.5614   36.7059   62.2037 C   0  0  0  0  0  0  0  0  0  0  0  0
   31.6922   35.7264   61.2273 C   0  0  0  0  0  0  0  0  0  0  0  0
   32.1488   35.7405   59.8203 C   0  0  0  0  0  0  0  0  0  0  0  0
   32.5737   36.7283   59.0803 N   0  0  0  0  0  0  0  0  0  0  0  0
   34.1626   35.3686   53.3762 H   0  0  0  0  0  0  0  0  0  0  0  0
   34.4908   37.0155   53.3229 H   0  0  0  0  0  0  0  0  0  0  0  0
   34.1515   38.4687   55.2176 H   0  0  0  0  0  0  0  0  0  0  0  0
   33.4389   38.7025   57.5541 H   0  0  0  0  0  0  0  0  0  0  0  0
   33.3146   34.2724   55.3601 H   0  0  0  0  0  0  0  0  0  0  0  0
   31.6057   33.7431   57.4244 H   0  0  0  0  0  0  0  0  0  0  0  0
   33.2569   33.4338   57.9612 H   0  0  0  0  0  0  0  0  0  0  0  0
   30.6080   33.0459   63.0208 H   0  0  0  0  0  0  0  0  0  0  0  0
   30.3866   34.7990   64.7319 H   0  0  0  0  0  0  0  0  0  0  0  0
   30.9902   37.1239   64.2184 H   0  0  0  0  0  0  0  0  0  0  0  0
   31.8248   37.7299   61.9837 H   0  0  0  0  0  0  0  0  0  0  0  0
  1  2  1  0  0  0  0
  1 20  1  0  0  0  0
  1 21  1  0  0  0  0
  2  7  2  0  0  0  0
  2  3  1  0  0  0  0
  3  4  2  0  0  0  0
  3 22  1  0  0  0  0
  4  5  1  0  0  0  0
  4 23  1  0  0  0  0
  5 19  1  0  0  0  0
  5  6  2  0  0  0  0
  6  7  1  0  0  0  0
  6  8  1  0  0  0  0
  7 24  1  0  0  0  0
  8  9  1  0  0  0  0
  8 25  1  0  0  0  0
  8 26  1  0  0  0  0
  9 18  1  0  0  0  0
  9 10  1  0  0  0  0
 10 11  2  0  0  0  0
 10 12  1  0  0  0  0
 12 17  2  0  0  0  0
 12 13  1  0  0  0  0
 13 14  2  0  0  0  0
 13 27  1  0  0  0  0
 14 15  1  0  0  0  0
 14 28  1  0  0  0  0
 15 16  2  0  0  0  0
 15 29  1  0  0  0  0
 16 17  1  0  0  0  0
 16 30  1  0  0  0  0
 17 18  1  0  0  0  0
 18 19  2  0  0  0  0
M  END
$$$$
