ZINC000000032351      none
 OpenBabel11202420153D

 28 29  0  0  0  0  0  0  0  0999 V2000
   31.3413   35.4941   62.7543 C   0  0  0  0  0  0  0  0  0  0  0  0
   31.3283   36.9356   63.1938 C   0  0  0  0  0  0  0  0  0  0  0  0
   30.8571   37.2966   64.5790 C   0  0  0  0  0  0  0  0  0  0  0  0
   31.7264   37.8746   62.3718 C   0  0  0  0  0  0  0  0  0  0  0  0
   32.0804   37.5295   60.9482 C   0  0  0  0  0  0  0  0  0  0  0  0
   32.4925   38.7436   60.2394 N   0  0  0  0  0  0  0  0  0  0  0  0
   32.8665   38.6748   58.9088 C   0  0  0  0  0  0  0  0  0  0  0  0
   33.2430   39.7665   58.2508 N   0  0  0  0  0  0  0  0  0  0  0  0
   33.6010   39.7103   56.9811 C   0  0  0  0  0  0  0  0  0  0  0  0
   33.6032   38.5857   56.2966 N   0  0  0  0  0  0  0  0  0  0  0  0
   33.2463   37.4421   56.8718 C   0  0  0  0  0  0  0  0  0  0  0  0
   33.1441   36.1388   56.4554 N   0  0  0  0  0  0  0  0  0  0  0  0
   33.3431   35.8027   55.5675 H   0  0  0  0  0  0  0  0  0  0  0  0
   32.7107   35.4031   57.5180 C   0  0  0  0  0  0  0  0  0  0  0  0
   32.5427   36.1737   58.5532 N   0  0  0  0  0  0  0  0  0  0  0  0
   32.8566   37.4491   58.2218 C   0  0  0  0  0  0  0  0  0  0  0  0
   32.3406   35.2286   62.4092 H   0  0  0  0  0  0  0  0  0  0  0  0
   31.0652   34.8559   63.5935 H   0  0  0  0  0  0  0  0  0  0  0  0
   30.6277   35.3555   61.9421 H   0  0  0  0  0  0  0  0  0  0  0  0
   29.7832   37.4825   64.5605 H   0  0  0  0  0  0  0  0  0  0  0  0
   31.0721   36.4745   65.2616 H   0  0  0  0  0  0  0  0  0  0  0  0
   31.3754   38.1942   64.9165 H   0  0  0  0  0  0  0  0  0  0  0  0
   31.8010   38.8961   62.7143 H   0  0  0  0  0  0  0  0  0  0  0  0
   31.2113   37.0967   60.4525 H   0  0  0  0  0  0  0  0  0  0  0  0
   32.8986   36.8094   60.9415 H   0  0  0  0  0  0  0  0  0  0  0  0
   32.5031   39.5957   60.7027 H   0  0  0  0  0  0  0  0  0  0  0  0
   33.8996   40.6217   56.4844 H   0  0  0  0  0  0  0  0  0  0  0  0
   32.5330   34.3380   57.5030 H   0  0  0  0  0  0  0  0  0  0  0  0
  1  2  1  0  0  0  0
  1 17  1  0  0  0  0
  1 18  1  0  0  0  0
  1 19  1  0  0  0  0
  2  3  1  0  0  0  0
  2  4  2  0  0  0  0
  3 20  1  0  0  0  0
  3 21  1  0  0  0  0
  3 22  1  0  0  0  0
  4  5  1  0  0  0  0
  4 23  1  0  0  0  0
  5  6  1  0  0  0  0
  5 24  1  0  0  0  0
  5 25  1  0  0  0  0
  6  7  1  0  0  0  0
  6 26  1  0  0  0  0
  7 16  2  0  0  0  0
  7  8  1  0  0  0  0
  8  9  2  0  0  0  0
  9 10  1  0  0  0  0
  9 27  1  0  0  0  0
 10 11  2  0  0  0  0
 11 16  1  0  0  0  0
 11 12  1  0  0  0  0
 12 13  1  0  0  0  0
 12 14  1  0  0  0  0
 14 15  2  0  0  0  0
 14 28  1  0  0  0  0
 15 16  1  0  0  0  0
M  END
$$$$
