ZINC000000032015      none
 OpenBabel11202420163D

 45 47  0  0  0  0  0  0  0  0999 V2000
   27.3379   40.9918   67.1961 C   0  0  0  0  0  0  0  0  0  0  0  0
   28.6814   40.6341   66.6145 C   0  0  0  0  0  0  0  0  0  0  0  0
   29.8379   41.1125   67.2020 C   0  0  0  0  0  0  0  0  0  0  0  0
   31.0720   40.7861   66.6708 C   0  0  0  0  0  0  0  0  0  0  0  0
   32.3307   41.3094   67.3136 C   0  0  0  0  0  0  0  0  0  0  0  0
   31.1523   39.9803   65.5516 C   0  0  0  0  0  0  0  0  0  0  0  0
   29.9933   39.4987   64.9605 C   0  0  0  0  0  0  0  0  0  0  0  0
   30.0698   38.7057   63.8594 O   0  0  0  0  0  0  0  0  0  0  0  0
   31.2305   37.8819   63.7326 C   0  0  0  0  0  0  0  0  0  0  0  0
   30.8759   36.6272   62.9768 C   0  0  0  0  0  0  0  0  0  0  0  0
   30.4935   35.6454   63.5772 O   0  0  0  0  0  0  0  0  0  0  0  0
   30.9839   36.5965   61.6337 N   0  0  0  0  0  0  0  0  0  0  0  0
   30.6393   35.3768   60.8989 C   0  0  0  0  0  0  0  0  0  0  0  0
   31.8643   34.8837   60.1261 C   0  0  0  0  0  0  0  0  0  0  0  0
   32.3068   35.9474   59.1545 C   0  0  0  0  0  0  0  0  0  0  0  0
   32.4202   37.2128   59.4352 N   0  0  0  0  0  0  0  0  0  0  0  0
   32.8410   37.8885   58.3352 C   0  0  0  0  0  0  0  0  0  0  0  0
   33.1214   39.2333   58.0790 C   0  0  0  0  0  0  0  0  0  0  0  0
   33.5384   39.6167   56.8358 C   0  0  0  0  0  0  0  0  0  0  0  0
   33.6882   38.6831   55.8201 C   0  0  0  0  0  0  0  0  0  0  0  0
   33.4177   37.3510   56.0502 C   0  0  0  0  0  0  0  0  0  0  0  0
   32.9919   36.9429   57.3070 C   0  0  0  0  0  0  0  0  0  0  0  0
   32.6513   35.7235   57.8577 N   0  0  0  0  0  0  0  0  0  0  0  0
   32.6554   34.8664   57.4036 H   0  0  0  0  0  0  0  0  0  0  0  0
   28.7561   39.8322   65.4920 C   0  0  0  0  0  0  0  0  0  0  0  0
   26.9753   41.9103   66.7348 H   0  0  0  0  0  0  0  0  0  0  0  0
   26.6316   40.1845   67.0025 H   0  0  0  0  0  0  0  0  0  0  0  0
   27.4353   41.1393   68.2717 H   0  0  0  0  0  0  0  0  0  0  0  0
   29.7773   41.7426   68.0770 H   0  0  0  0  0  0  0  0  0  0  0  0
   32.5955   42.2677   66.8667 H   0  0  0  0  0  0  0  0  0  0  0  0
   32.1650   41.4406   68.3830 H   0  0  0  0  0  0  0  0  0  0  0  0
   33.1417   40.5984   67.1561 H   0  0  0  0  0  0  0  0  0  0  0  0
   32.1166   39.7260   65.1368 H   0  0  0  0  0  0  0  0  0  0  0  0
   32.0046   38.4256   63.1911 H   0  0  0  0  0  0  0  0  0  0  0  0
   31.5983   37.6172   64.7239 H   0  0  0  0  0  0  0  0  0  0  0  0
   31.2897   37.3818   61.1536 H   0  0  0  0  0  0  0  0  0  0  0  0
   30.3194   34.6074   61.6017 H   0  0  0  0  0  0  0  0  0  0  0  0
   29.8304   35.5897   60.2002 H   0  0  0  0  0  0  0  0  0  0  0  0
   32.6732   34.6708   60.8248 H   0  0  0  0  0  0  0  0  0  0  0  0
   31.6079   33.9762   59.5794 H   0  0  0  0  0  0  0  0  0  0  0  0
   33.0089   39.9682   58.8623 H   0  0  0  0  0  0  0  0  0  0  0  0
   33.7542   40.6570   56.6418 H   0  0  0  0  0  0  0  0  0  0  0  0
   34.0191   39.0021   54.8429 H   0  0  0  0  0  0  0  0  0  0  0  0
   33.5362   36.6283   55.2564 H   0  0  0  0  0  0  0  0  0  0  0  0
   27.8522   39.4621   65.0310 H   0  0  0  0  0  0  0  0  0  0  0  0
  1  2  1  0  0  0  0
  1 26  1  0  0  0  0
  1 27  1  0  0  0  0
  1 28  1  0  0  0  0
  2 25  2  0  0  0  0
  2  3  1  0  0  0  0
  3  4  2  0  0  0  0
  3 29  1  0  0  0  0
  4  5  1  0  0  0  0
  4  6  1  0  0  0  0
  5 30  1  0  0  0  0
  5 31  1  0  0  0  0
  5 32  1  0  0  0  0
  6  7  2  0  0  0  0
  6 33  1  0  0  0  0
  7  8  1  0  0  0  0
  7 25  1  0  0  0  0
  8  9  1  0  0  0  0
  9 10  1  0  0  0  0
  9 34  1  0  0  0  0
  9 35  1  0  0  0  0
 10 11  2  0  0  0  0
 10 12  1  0  0  0  0
 12 13  1  0  0  0  0
 12 36  1  0  0  0  0
 13 14  1  0  0  0  0
 13 37  1  0  0  0  0
 13 38  1  0  0  0  0
 14 15  1  0  0  0  0
 14 39  1  0  0  0  0
 14 40  1  0  0  0  0
 15 23  1  0  0  0  0
 15 16  2  0  0  0  0
 16 17  1  0  0  0  0
 17 22  2  0  0  0  0
 17 18  1  0  0  0  0
 18 19  2  0  0  0  0
 18 41  1  0  0  0  0
 19 20  1  0  0  0  0
 19 42  1  0  0  0  0
 20 21  2  0  0  0  0
 20 43  1  0  0  0  0
 21 22  1  0  0  0  0
 21 44  1  0  0  0  0
 22 23  1  0  0  0  0
 23 24  1  0  0  0  0
 25 45  1  0  0  0  0
M  END
$$$$
