ZINC000000052337      none
 OpenBabel11202420153D

 29 31  0  0  0  0  0  0  0  0999 V2000
   32.1817   34.4022   58.3689 C   0  0  0  0  0  0  0  0  0  0  0  0
   32.2738   35.7711   58.9926 C   0  0  0  0  0  0  0  0  0  0  0  0
   31.8835   35.9642   60.2994 C   0  0  0  0  0  0  0  0  0  0  0  0
   31.9621   37.2194   60.8874 C   0  0  0  0  0  0  0  0  0  0  0  0
   32.4383   38.2995   60.1750 C   0  0  0  0  0  0  0  0  0  0  0  0
   32.8332   38.1275   58.8511 C   0  0  0  0  0  0  0  0  0  0  0  0
   33.3447   39.2413   58.0387 C   0  0  0  0  0  0  0  0  0  0  0  0
   33.4381   40.3648   58.4950 O   0  0  0  0  0  0  0  0  0  0  0  0
   33.7066   38.9685   56.7652 O   0  0  0  0  0  0  0  0  0  0  0  0
   33.5999   37.7236   56.2704 C   0  0  0  0  0  0  0  0  0  0  0  0
   34.0120   37.4897   54.8724 C   0  0  0  0  0  0  0  0  0  0  0  0
   33.9230   36.2097   54.3200 C   0  0  0  0  0  0  0  0  0  0  0  0
   34.3053   35.9981   53.0126 C   0  0  0  0  0  0  0  0  0  0  0  0
   34.7868   37.0506   52.2493 C   0  0  0  0  0  0  0  0  0  0  0  0
   35.1644   36.8365   50.9700 F   0  0  0  0  0  0  0  0  0  0  0  0
   34.8818   38.3220   52.7938 C   0  0  0  0  0  0  0  0  0  0  0  0
   34.4979   38.5464   54.0987 C   0  0  0  0  0  0  0  0  0  0  0  0
   33.1505   36.7091   56.9606 N   0  0  0  0  0  0  0  0  0  0  0  0
   32.7546   36.8502   58.2486 C   0  0  0  0  0  0  0  0  0  0  0  0
   33.1151   33.8641   58.5343 H   0  0  0  0  0  0  0  0  0  0  0  0
   31.3589   33.8505   58.8233 H   0  0  0  0  0  0  0  0  0  0  0  0
   32.0048   34.5020   57.2981 H   0  0  0  0  0  0  0  0  0  0  0  0
   31.5114   35.1287   60.8737 H   0  0  0  0  0  0  0  0  0  0  0  0
   31.6511   37.3501   61.9134 H   0  0  0  0  0  0  0  0  0  0  0  0
   32.4970   39.2734   60.6380 H   0  0  0  0  0  0  0  0  0  0  0  0
   33.5519   35.3883   54.9150 H   0  0  0  0  0  0  0  0  0  0  0  0
   34.2337   35.0096   52.5835 H   0  0  0  0  0  0  0  0  0  0  0  0
   35.2576   39.1382   52.1947 H   0  0  0  0  0  0  0  0  0  0  0  0
   34.5724   39.5372   54.5218 H   0  0  0  0  0  0  0  0  0  0  0  0
  1  2  1  0  0  0  0
  1 20  1  0  0  0  0
  1 21  1  0  0  0  0
  1 22  1  0  0  0  0
  2 19  2  0  0  0  0
  2  3  1  0  0  0  0
  3  4  2  0  0  0  0
  3 23  1  0  0  0  0
  4  5  1  0  0  0  0
  4 24  1  0  0  0  0
  5  6  2  0  0  0  0
  5 25  1  0  0  0  0
  6 19  1  0  0  0  0
  6  7  1  0  0  0  0
  7  8  2  0  0  0  0
  7  9  1  0  0  0  0
  9 10  1  0  0  0  0
 10 11  1  0  0  0  0
 10 18  2  0  0  0  0
 11 17  2  0  0  0  0
 11 12  1  0  0  0  0
 12 13  2  0  0  0  0
 12 26  1  0  0  0  0
 13 14  1  0  0  0  0
 13 27  1  0  0  0  0
 14 15  1  0  0  0  0
 14 16  2  0  0  0  0
 16 17  1  0  0  0  0
 16 28  1  0  0  0  0
 17 29  1  0  0  0  0
 18 19  1  0  0  0  0
M  END
$$$$
