ZINC000000033286      none
 OpenBabel11202420153D

 32 33  0  0  0  0  0  0  0  0999 V2000
   31.9272   34.5320   60.0765 O   0  0  0  0  0  0  0  0  0  0  0  0
   31.8013   35.7280   60.2535 C   0  0  0  0  0  0  0  0  0  0  0  0
   32.2536   36.6320   59.2817 C   0  0  0  0  0  0  0  0  0  0  0  0
   32.8341   36.1699   58.1389 C   0  0  0  0  0  0  0  0  0  0  0  0
   33.2895   37.0804   57.1601 C   0  0  0  0  0  0  0  0  0  0  0  0
   33.8883   36.7528   55.9584 C   0  0  0  0  0  0  0  0  0  0  0  0
   34.1725   37.9635   55.3118 C   0  0  0  0  0  0  0  0  0  0  0  0
   33.7476   38.9599   56.1220 C   0  0  0  0  0  0  0  0  0  0  0  0
   33.2127   38.4264   57.2284 O   0  0  0  0  0  0  0  0  0  0  0  0
   31.1592   36.2390   61.5176 C   0  0  0  0  0  0  0  0  0  0  0  0
   30.7860   35.1337   62.3428 O   0  0  0  0  0  0  0  0  0  0  0  0
   29.9140   37.0543   61.1633 C   0  0  0  0  0  0  0  0  0  0  0  0
   29.2621   37.5732   62.4466 C   0  0  0  0  0  0  0  0  0  0  0  0
   30.2552   38.4603   63.2004 C   0  0  0  0  0  0  0  0  0  0  0  0
   31.5003   37.6448   63.5546 C   0  0  0  0  0  0  0  0  0  0  0  0
   32.1522   37.1260   62.2713 C   0  0  0  0  0  0  0  0  0  0  0  0
   32.1416   37.6946   59.4391 H   0  0  0  0  0  0  0  0  0  0  0  0
   32.9461   35.1073   57.9817 H   0  0  0  0  0  0  0  0  0  0  0  0
   34.0958   35.7592   55.5896 H   0  0  0  0  0  0  0  0  0  0  0  0
   34.6431   38.0793   54.3466 H   0  0  0  0  0  0  0  0  0  0  0  0
   33.8227   40.0159   55.9088 H   0  0  0  0  0  0  0  0  0  0  0  0
   30.1567   34.5280   61.9278 H   0  0  0  0  0  0  0  0  0  0  0  0
   29.2065   36.4226   60.6263 H   0  0  0  0  0  0  0  0  0  0  0  0
   30.1987   37.8975   60.5338 H   0  0  0  0  0  0  0  0  0  0  0  0
   28.9775   36.7302   63.0761 H   0  0  0  0  0  0  0  0  0  0  0  0
   28.3750   38.1541   62.1943 H   0  0  0  0  0  0  0  0  0  0  0  0
   30.5397   39.3033   62.5710 H   0  0  0  0  0  0  0  0  0  0  0  0
   29.7907   38.8299   64.1146 H   0  0  0  0  0  0  0  0  0  0  0  0
   32.2077   38.2767   64.0917 H   0  0  0  0  0  0  0  0  0  0  0  0
   31.2157   36.8017   64.1841 H   0  0  0  0  0  0  0  0  0  0  0  0
   33.0393   36.5450   62.5236 H   0  0  0  0  0  0  0  0  0  0  0  0
   32.4369   37.9690   61.6418 H   0  0  0  0  0  0  0  0  0  0  0  0
  1  2  2  0  0  0  0
  2  3  1  0  0  0  0
  2 10  1  0  0  0  0
  3  4  2  0  0  0  0
  3 17  1  0  0  0  0
  4  5  1  0  0  0  0
  4 18  1  0  0  0  0
  5  9  1  0  0  0  0
  5  6  2  0  0  0  0
  6  7  1  0  0  0  0
  6 19  1  0  0  0  0
  7  8  2  0  0  0  0
  7 20  1  0  0  0  0
  8  9  1  0  0  0  0
  8 21  1  0  0  0  0
 10 16  1  0  0  0  0
 10 11  1  0  0  0  0
 10 12  1  0  0  0  0
 11 22  1  0  0  0  0
 12 13  1  0  0  0  0
 12 23  1  0  0  0  0
 12 24  1  0  0  0  0
 13 14  1  0  0  0  0
 13 25  1  0  0  0  0
 13 26  1  0  0  0  0
 14 15  1  0  0  0  0
 14 27  1  0  0  0  0
 14 28  1  0  0  0  0
 15 16  1  0  0  0  0
 15 29  1  0  0  0  0
 15 30  1  0  0  0  0
 16 31  1  0  0  0  0
 16 32  1  0  0  0  0
M  END
$$$$
