ZINC000000027803      none
 OpenBabel11202420153D

 21 21  0  0  0  0  0  0  0  0999 V2000
   32.2317   38.0758   57.8715 C   0  0  0  0  0  0  0  0  0  0  0  0
   31.9253   37.3878   59.1768 C   0  0  0  0  0  0  0  0  0  0  0  0
   32.2224   36.0457   59.3239 C   0  0  0  0  0  0  0  0  0  0  0  0
   31.9396   35.4166   60.5256 C   0  0  0  0  0  0  0  0  0  0  0  0
   32.2949   33.7329   60.7550 Cl  0  0  0  0  0  0  0  0  0  0  0  0
   31.3586   36.1754   61.5513 C   0  0  0  0  0  0  0  0  0  0  0  0
   31.0353   35.5563   62.8534 C   0  0  0  0  0  0  0  0  0  0  0  0
   31.9501   35.5521   63.8432 N   0  0  0  0  0  0  0  0  0  0  0  0
   29.9443   35.0508   63.0319 O   0  0  0  0  0  0  0  0  0  0  0  0
   31.0905   37.5251   61.3212 C   0  0  0  0  0  0  0  0  0  0  0  0
   30.4662   38.3589   62.4102 C   0  0  0  0  0  0  0  0  0  0  0  0
   31.3782   38.0768   60.1605 N   0  0  0  0  0  0  0  0  0  0  0  0
   33.2408   38.4865   57.9054 H   0  0  0  0  0  0  0  0  0  0  0  0
   32.1596   37.3563   57.0559 H   0  0  0  0  0  0  0  0  0  0  0  0
   31.5166   38.8821   57.7091 H   0  0  0  0  0  0  0  0  0  0  0  0
   32.6704   35.4936   58.5109 H   0  0  0  0  0  0  0  0  0  0  0  0
   32.8206   35.9554   63.7010 H   0  0  0  0  0  0  0  0  0  0  0  0
   31.7379   35.1457   64.6980 H   0  0  0  0  0  0  0  0  0  0  0  0
   29.3805   38.3147   62.3243 H   0  0  0  0  0  0  0  0  0  0  0  0
   30.7698   37.9722   63.3830 H   0  0  0  0  0  0  0  0  0  0  0  0
   30.7968   39.3927   62.3109 H   0  0  0  0  0  0  0  0  0  0  0  0
  1  2  1  0  0  0  0
  1 13  1  0  0  0  0
  1 14  1  0  0  0  0
  1 15  1  0  0  0  0
  2 12  2  0  0  0  0
  2  3  1  0  0  0  0
  3  4  2  0  0  0  0
  3 16  1  0  0  0  0
  4  5  1  0  0  0  0
  4  6  1  0  0  0  0
  6  7  1  0  0  0  0
  6 10  2  0  0  0  0
  7  8  1  0  0  0  0
  7  9  2  0  0  0  0
  8 17  1  0  0  0  0
  8 18  1  0  0  0  0
 10 11  1  0  0  0  0
 10 12  1  0  0  0  0
 11 19  1  0  0  0  0
 11 20  1  0  0  0  0
 11 21  1  0  0  0  0
M  END
$$$$
