ZINC000000036538      none
 OpenBabel11202420153D

 46 47  0  0  0  0  0  0  0  0999 V2000
   32.8650   37.2786   64.3463 C   0  0  0  0  0  0  0  0  0  0  0  0
   32.0125   37.1234   63.1133 C   0  0  0  0  0  0  0  0  0  0  0  0
   32.5999   37.1138   61.8635 C   0  0  0  0  0  0  0  0  0  0  0  0
   31.8189   36.9658   60.7319 C   0  0  0  0  0  0  0  0  0  0  0  0
   30.4473   36.8332   60.8471 C   0  0  0  0  0  0  0  0  0  0  0  0
   29.8528   36.8476   62.0936 C   0  0  0  0  0  0  0  0  0  0  0  0
   28.3580   36.7026   62.2181 C   0  0  0  0  0  0  0  0  0  0  0  0
   30.6344   36.9957   63.2323 C   0  0  0  0  0  0  0  0  0  0  0  0
   30.0364   37.0109   64.4945 N   0  0  0  0  0  0  0  0  0  0  0  0
   29.8460   35.7582   65.2299 C   0  0  0  0  0  0  0  0  0  0  0  0
   30.5884   35.8265   66.5396 C   0  0  0  0  0  0  0  0  0  0  0  0
   31.7404   35.4526   66.6038 O   0  0  0  0  0  0  0  0  0  0  0  0
   29.9721   36.3028   67.6394 N   0  0  0  0  0  0  0  0  0  0  0  0
   30.6938   36.3691   68.9126 C   0  0  0  0  0  0  0  0  0  0  0  0
   29.7040   36.2385   70.0886 C   0  0  0  0  0  0  0  0  0  0  0  0
   30.2647   37.2022   71.1649 C   0  0  0  0  0  0  0  0  0  0  0  0
   30.7766   38.3966   70.3220 C   0  0  0  0  0  0  0  0  0  0  0  0
   31.3758   37.7404   69.0610 C   0  0  0  0  0  0  0  0  0  0  0  0
   29.5429   38.4448   65.1598 S   0  0  0  0  0  0  0  0  0  0  0  0
   31.0580   39.4358   65.2744 C   0  0  0  0  0  0  0  0  0  0  0  0
   28.6595   38.9945   64.1920 O   0  0  0  0  0  0  0  0  0  0  0  0
   29.0804   38.0892   66.4555 O   0  0  0  0  0  0  0  0  0  0  0  0
   33.0708   38.3356   64.5151 H   0  0  0  0  0  0  0  0  0  0  0  0
   32.3365   36.8694   65.2073 H   0  0  0  0  0  0  0  0  0  0  0  0
   33.8043   36.7430   64.2083 H   0  0  0  0  0  0  0  0  0  0  0  0
   33.6708   37.2175   61.7699 H   0  0  0  0  0  0  0  0  0  0  0  0
   32.2813   36.9541   59.7559 H   0  0  0  0  0  0  0  0  0  0  0  0
   29.8403   36.7177   59.9613 H   0  0  0  0  0  0  0  0  0  0  0  0
   28.0956   35.6447   62.2315 H   0  0  0  0  0  0  0  0  0  0  0  0
   28.0233   37.1718   63.1433 H   0  0  0  0  0  0  0  0  0  0  0  0
   27.8740   37.1863   61.3697 H   0  0  0  0  0  0  0  0  0  0  0  0
   28.7836   35.6076   65.4219 H   0  0  0  0  0  0  0  0  0  0  0  0
   30.2295   34.9272   64.6377 H   0  0  0  0  0  0  0  0  0  0  0  0
   29.0508   36.6018   67.5880 H   0  0  0  0  0  0  0  0  0  0  0  0
   31.4384   35.5746   68.9613 H   0  0  0  0  0  0  0  0  0  0  0  0
   28.7048   36.5485   69.7825 H   0  0  0  0  0  0  0  0  0  0  0  0
   29.6889   35.2148   70.4626 H   0  0  0  0  0  0  0  0  0  0  0  0
   31.0843   36.7354   71.7110 H   0  0  0  0  0  0  0  0  0  0  0  0
   29.4786   37.5211   71.8493 H   0  0  0  0  0  0  0  0  0  0  0  0
   31.5435   38.9471   70.8667 H   0  0  0  0  0  0  0  0  0  0  0  0
   29.9524   39.0574   70.0532 H   0  0  0  0  0  0  0  0  0  0  0  0
   32.4513   37.6114   69.1825 H   0  0  0  0  0  0  0  0  0  0  0  0
   31.1699   38.3566   68.1857 H   0  0  0  0  0  0  0  0  0  0  0  0
   31.5109   39.5225   64.2868 H   0  0  0  0  0  0  0  0  0  0  0  0
   30.8147   40.4292   65.6512 H   0  0  0  0  0  0  0  0  0  0  0  0
   31.7587   38.9509   65.9541 H   0  0  0  0  0  0  0  0  0  0  0  0
  1  2  1  0  0  0  0
  1 23  1  0  0  0  0
  1 24  1  0  0  0  0
  1 25  1  0  0  0  0
  2  8  2  0  0  0  0
  2  3  1  0  0  0  0
  3  4  2  0  0  0  0
  3 26  1  0  0  0  0
  4  5  1  0  0  0  0
  4 27  1  0  0  0  0
  5  6  2  0  0  0  0
  5 28  1  0  0  0  0
  6  7  1  0  0  0  0
  6  8  1  0  0  0  0
  7 29  1  0  0  0  0
  7 30  1  0  0  0  0
  7 31  1  0  0  0  0
  8  9  1  0  0  0  0
  9 10  1  0  0  0  0
  9 19  1  0  0  0  0
 10 11  1  0  0  0  0
 10 32  1  0  0  0  0
 10 33  1  0  0  0  0
 11 12  2  0  0  0  0
 11 13  1  0  0  0  0
 13 14  1  0  0  0  0
 13 34  1  0  0  0  0
 14 18  1  0  0  0  0
 14 15  1  0  0  0  0
 14 35  1  0  0  0  0
 15 16  1  0  0  0  0
 15 36  1  0  0  0  0
 15 37  1  0  0  0  0
 16 17  1  0  0  0  0
 16 38  1  0  0  0  0
 16 39  1  0  0  0  0
 17 18  1  0  0  0  0
 17 40  1  0  0  0  0
 17 41  1  0  0  0  0
 18 42  1  0  0  0  0
 18 43  1  0  0  0  0
 19 20  1  0  0  0  0
 19 21  2  0  0  0  0
 19 22  2  0  0  0  0
 20 44  1  0  0  0  0
 20 45  1  0  0  0  0
 20 46  1  0  0  0  0
M  END
$$$$
