ZINC000000041810      none
 OpenBabel11202420153D

 31 33  0  0  1  0  0  0  0  0999 V2000
   31.4631   34.1245   55.3278 O   0  0  0  0  0  0  0  0  0  0  0  0
   32.7394   34.0733   55.9689 C   0  0  1  0  0  0  0  0  0  0  0  0
   33.6562   33.1081   55.2628 C   0  0  0  0  0  0  0  0  0  0  0  0
   33.5212   32.8949   53.9037 C   0  0  0  0  0  0  0  0  0  0  0  0
   34.3651   32.0128   53.2553 C   0  0  0  0  0  0  0  0  0  0  0  0
   35.3382   31.3369   53.9675 C   0  0  0  0  0  0  0  0  0  0  0  0
   35.4698   31.5461   55.3276 C   0  0  0  0  0  0  0  0  0  0  0  0
   34.6287   32.4316   55.9752 C   0  0  0  0  0  0  0  0  0  0  0  0
   33.3699   35.4825   56.0497 C   0  0  0  0  0  0  0  0  0  0  0  0
   32.9422   35.9586   57.4250 C   0  0  0  0  0  0  0  0  0  0  0  0
   32.9909   37.3514   57.9121 C   0  0  0  0  0  0  0  0  0  0  0  0
   32.5646   37.6572   59.2059 C   0  0  0  0  0  0  0  0  0  0  0  0
   32.6075   38.9617   59.6526 C   0  0  0  0  0  0  0  0  0  0  0  0
   33.0810   39.9643   58.8252 C   0  0  0  0  0  0  0  0  0  0  0  0
   33.5055   39.6682   57.5421 C   0  0  0  0  0  0  0  0  0  0  0  0
   33.4630   38.3689   57.0807 C   0  0  0  0  0  0  0  0  0  0  0  0
   32.5230   34.9375   58.0944 N   0  0  0  0  0  0  0  0  0  0  0  0
   32.6034   33.7302   57.3629 O   0  0  0  0  0  0  0  0  0  0  0  0
   31.5018   34.3733   54.3941 H   0  0  0  0  0  0  0  0  0  0  0  0
   32.7585   33.4201   53.3478 H   0  0  0  0  0  0  0  0  0  0  0  0
   34.2625   31.8495   52.1926 H   0  0  0  0  0  0  0  0  0  0  0  0
   35.9957   30.6457   53.4614 H   0  0  0  0  0  0  0  0  0  0  0  0
   36.2300   31.0181   55.8840 H   0  0  0  0  0  0  0  0  0  0  0  0
   34.7315   32.5951   57.0379 H   0  0  0  0  0  0  0  0  0  0  0  0
   32.9676   36.1325   55.2728 H   0  0  0  0  0  0  0  0  0  0  0  0
   34.4561   35.4225   55.9816 H   0  0  0  0  0  0  0  0  0  0  0  0
   32.1978   36.8749   59.8539 H   0  0  0  0  0  0  0  0  0  0  0  0
   32.2738   39.2002   60.6517 H   0  0  0  0  0  0  0  0  0  0  0  0
   33.1160   40.9834   59.1812 H   0  0  0  0  0  0  0  0  0  0  0  0
   33.8705   40.4563   56.9000 H   0  0  0  0  0  0  0  0  0  0  0  0
   33.7941   38.1392   56.0787 H   0  0  0  0  0  0  0  0  0  0  0  0
  1 19  1  0  0  0  0
  2  1  1  6  0  0  0
  2 18  1  0  0  0  0
  2  3  1  0  0  0  0
  2  9  1  0  0  0  0
  3  8  2  0  0  0  0
  3  4  1  0  0  0  0
  4  5  2  0  0  0  0
  4 20  1  0  0  0  0
  5  6  1  0  0  0  0
  5 21  1  0  0  0  0
  6  7  2  0  0  0  0
  6 22  1  0  0  0  0
  7  8  1  0  0  0  0
  7 23  1  0  0  0  0
  8 24  1  0  0  0  0
  9 10  1  0  0  0  0
  9 25  1  0  0  0  0
  9 26  1  0  0  0  0
 10 11  1  0  0  0  0
 10 17  2  0  0  0  0
 11 16  2  0  0  0  0
 11 12  1  0  0  0  0
 12 13  2  0  0  0  0
 12 27  1  0  0  0  0
 13 14  1  0  0  0  0
 13 28  1  0  0  0  0
 14 15  2  0  0  0  0
 14 29  1  0  0  0  0
 15 16  1  0  0  0  0
 15 30  1  0  0  0  0
 16 31  1  0  0  0  0
 17 18  1  0  0  0  0
M  END
$$$$
