ZINC000000032902      none
 OpenBabel11202420153D

 26 28  0  0  0  0  0  0  0  0999 V2000
   30.7212   39.0919   61.9272 O   0  0  0  0  0  0  0  0  0  0  0  0
   31.2750   38.0691   62.2798 C   0  0  0  0  0  0  0  0  0  0  0  0
   31.9396   38.0054   63.5983 C   0  0  0  0  0  0  0  0  0  0  0  0
   33.0446   37.1732   63.7870 C   0  0  0  0  0  0  0  0  0  0  0  0
   33.6638   37.1228   65.0186 C   0  0  0  0  0  0  0  0  0  0  0  0
   33.1888   37.8906   66.0672 C   0  0  0  0  0  0  0  0  0  0  0  0
   32.0907   38.7132   65.8885 C   0  0  0  0  0  0  0  0  0  0  0  0
   31.4618   38.7727   64.6622 C   0  0  0  0  0  0  0  0  0  0  0  0
   31.2830   36.9930   61.4685 N   0  0  0  0  0  0  0  0  0  0  0  0
   30.7768   35.7730   61.7432 C   0  0  0  0  0  0  0  0  0  0  0  0
   30.0046   35.3213   63.2029 S   0  0  0  0  0  0  0  0  0  0  0  0
   30.9729   34.9784   60.6936 N   0  0  0  0  0  0  0  0  0  0  0  0
   31.6092   35.6478   59.7305 C   0  0  0  0  0  0  0  0  0  0  0  0
   32.0229   35.2824   58.5143 N   0  0  0  0  0  0  0  0  0  0  0  0
   32.6424   36.1372   57.7265 C   0  0  0  0  0  0  0  0  0  0  0  0
   32.8759   37.4462   58.1562 C   0  0  0  0  0  0  0  0  0  0  0  0
   32.4557   37.8226   59.3953 C   0  0  0  0  0  0  0  0  0  0  0  0
   31.8242   36.9219   60.1773 N   0  0  0  0  0  0  0  0  0  0  0  0
   33.4164   36.5736   62.9693 H   0  0  0  0  0  0  0  0  0  0  0  0
   34.5214   36.4829   65.1648 H   0  0  0  0  0  0  0  0  0  0  0  0
   33.6777   37.8481   67.0293 H   0  0  0  0  0  0  0  0  0  0  0  0
   31.7252   39.3102   66.7110 H   0  0  0  0  0  0  0  0  0  0  0  0
   30.6050   39.4154   64.5241 H   0  0  0  0  0  0  0  0  0  0  0  0
   32.9702   35.8257   56.7457 H   0  0  0  0  0  0  0  0  0  0  0  0
   33.3831   38.1505   57.5134 H   0  0  0  0  0  0  0  0  0  0  0  0
   32.6260   38.8291   59.7482 H   0  0  0  0  0  0  0  0  0  0  0  0
  1  2  2  0  0  0  0
  2  3  1  0  0  0  0
  2  9  1  0  0  0  0
  3  8  2  0  0  0  0
  3  4  1  0  0  0  0
  4  5  2  0  0  0  0
  4 19  1  0  0  0  0
  5  6  1  0  0  0  0
  5 20  1  0  0  0  0
  6  7  2  0  0  0  0
  6 21  1  0  0  0  0
  7  8  1  0  0  0  0
  7 22  1  0  0  0  0
  8 23  1  0  0  0  0
  9 18  1  0  0  0  0
  9 10  1  0  0  0  0
 10 11  2  0  0  0  0
 10 12  1  0  0  0  0
 12 13  2  0  0  0  0
 13 18  1  0  0  0  0
 13 14  1  0  0  0  0
 14 15  2  0  0  0  0
 15 16  1  0  0  0  0
 15 24  1  0  0  0  0
 16 17  2  0  0  0  0
 16 25  1  0  0  0  0
 17 18  1  0  0  0  0
 17 26  1  0  0  0  0
M  END
$$$$
