ZINC000000055477      none
 OpenBabel11202420153D

 30 31  0  0  1  0  0  0  0  0999 V2000
   29.4554   36.6402   60.0267 C   0  0  0  0  0  0  0  0  0  0  0  0
   30.3510   36.8344   61.2519 C   0  0  1  0  0  0  0  0  0  0  0  0
   30.4613   37.8995   61.4554 H   0  0  0  0  0  0  0  0  0  0  0  0
   29.7141   36.1481   62.4622 C   0  0  0  0  0  0  0  0  0  0  0  0
   30.7277   36.0641   63.5748 C   0  0  0  0  0  0  0  0  0  0  0  0
   30.3773   36.1829   64.7302 O   0  0  0  0  0  0  0  0  0  0  0  0
   32.0248   35.8555   63.2787 N   0  0  0  0  0  0  0  0  0  0  0  0
   32.4500   35.8044   61.9485 N   0  0  0  0  0  0  0  0  0  0  0  0
   31.7050   36.2329   60.9830 C   0  0  0  0  0  0  0  0  0  0  0  0
   32.1891   36.1306   59.5946 C   0  0  0  0  0  0  0  0  0  0  0  0
   32.3499   37.2841   58.8227 C   0  0  0  0  0  0  0  0  0  0  0  0
   32.8037   37.1880   57.5241 C   0  0  0  0  0  0  0  0  0  0  0  0
   33.1022   35.9461   56.9796 C   0  0  0  0  0  0  0  0  0  0  0  0
   33.5628   35.8539   55.6631 N   0  0  0  0  0  0  0  0  0  0  0  0
   32.9435   34.7888   57.7451 C   0  0  0  0  0  0  0  0  0  0  0  0
   33.2452   33.5375   57.1939 N   0  0  0  0  0  0  0  0  0  0  0  0
   32.4938   34.8800   59.0499 C   0  0  0  0  0  0  0  0  0  0  0  0
   29.4582   35.5892   59.7375 H   0  0  0  0  0  0  0  0  0  0  0  0
   28.4379   36.9479   60.2680 H   0  0  0  0  0  0  0  0  0  0  0  0
   29.8318   37.2451   59.2018 H   0  0  0  0  0  0  0  0  0  0  0  0
   28.8533   36.7265   62.7978 H   0  0  0  0  0  0  0  0  0  0  0  0
   29.3937   35.1439   62.1847 H   0  0  0  0  0  0  0  0  0  0  0  0
   32.6691   35.7399   63.9945 H   0  0  0  0  0  0  0  0  0  0  0  0
   32.1189   38.2517   59.2433 H   0  0  0  0  0  0  0  0  0  0  0  0
   32.9276   38.0808   56.9292 H   0  0  0  0  0  0  0  0  0  0  0  0
   33.6737   36.6571   55.1307 H   0  0  0  0  0  0  0  0  0  0  0  0
   33.7716   34.9868   55.2819 H   0  0  0  0  0  0  0  0  0  0  0  0
   33.5646   33.4742   56.2802 H   0  0  0  0  0  0  0  0  0  0  0  0
   33.1349   32.7339   57.7259 H   0  0  0  0  0  0  0  0  0  0  0  0
   32.3748   33.9868   59.6451 H   0  0  0  0  0  0  0  0  0  0  0  0
  1  2  1  0  0  0  0
  1 18  1  0  0  0  0
  1 19  1  0  0  0  0
  1 20  1  0  0  0  0
  2  3  1  1  0  0  0
  2  9  1  0  0  0  0
  2  4  1  0  0  0  0
  4  5  1  0  0  0  0
  4 21  1  0  0  0  0
  4 22  1  0  0  0  0
  5  6  2  0  0  0  0
  5  7  1  0  0  0  0
  7  8  1  0  0  0  0
  7 23  1  0  0  0  0
  8  9  2  0  0  0  0
  9 10  1  0  0  0  0
 10 17  2  0  0  0  0
 10 11  1  0  0  0  0
 11 12  2  0  0  0  0
 11 24  1  0  0  0  0
 12 13  1  0  0  0  0
 12 25  1  0  0  0  0
 13 14  1  0  0  0  0
 13 15  2  0  0  0  0
 14 26  1  0  0  0  0
 14 27  1  0  0  0  0
 15 16  1  0  0  0  0
 15 17  1  0  0  0  0
 16 28  1  0  0  0  0
 16 29  1  0  0  0  0
 17 30  1  0  0  0  0
M  END
$$$$
