ZINC000000024967      none
 OpenBabel11202420153D

 31 33  0  0  0  0  0  0  0  0999 V2000
   33.0194   35.8329   51.5563 C   0  0  0  0  0  0  0  0  0  0  0  0
   31.8612   35.9067   52.2366 C   0  0  0  0  0  0  0  0  0  0  0  0
   32.0982   36.5076   53.4140 O   0  0  0  0  0  0  0  0  0  0  0  0
   33.3987   36.8319   53.4975 C   0  0  0  0  0  0  0  0  0  0  0  0
   34.0617   37.5238   54.6607 C   0  0  0  0  0  0  0  0  0  0  0  0
   33.0628   37.7947   55.7032 N   0  0  0  0  0  0  0  0  0  0  0  0
   33.3213   39.0795   56.3564 C   0  0  0  0  0  0  0  0  0  0  0  0
   32.2685   39.2942   57.4510 C   0  0  0  0  0  0  0  0  0  0  0  0
   32.5247   38.2693   58.5583 C   0  0  0  0  0  0  0  0  0  0  0  0
   32.7207   36.9035   57.9496 C   0  0  0  0  0  0  0  0  0  0  0  0
   32.6392   35.7990   58.7831 C   0  0  0  0  0  0  0  0  0  0  0  0
   32.8156   34.5261   58.2784 C   0  0  0  0  0  0  0  0  0  0  0  0
   33.0767   34.3488   56.9318 C   0  0  0  0  0  0  0  0  0  0  0  0
   33.1572   35.4421   56.0966 C   0  0  0  0  0  0  0  0  0  0  0  0
   32.9764   36.7314   56.6007 C   0  0  0  0  0  0  0  0  0  0  0  0
   34.0105   36.4293   52.3691 C   0  0  0  0  0  0  0  0  0  0  0  0
   33.1642   35.4011   50.5770 H   0  0  0  0  0  0  0  0  0  0  0  0
   30.9042   35.5402   51.8958 H   0  0  0  0  0  0  0  0  0  0  0  0
   34.4987   38.4637   54.3233 H   0  0  0  0  0  0  0  0  0  0  0  0
   34.8452   36.8834   55.0658 H   0  0  0  0  0  0  0  0  0  0  0  0
   34.3158   39.0695   56.8025 H   0  0  0  0  0  0  0  0  0  0  0  0
   33.2580   39.8824   55.6220 H   0  0  0  0  0  0  0  0  0  0  0  0
   32.3567   40.3030   57.8546 H   0  0  0  0  0  0  0  0  0  0  0  0
   31.2709   39.1490   57.0366 H   0  0  0  0  0  0  0  0  0  0  0  0
   33.4195   38.5509   59.1134 H   0  0  0  0  0  0  0  0  0  0  0  0
   31.6705   38.2452   59.2350 H   0  0  0  0  0  0  0  0  0  0  0  0
   32.4359   35.9351   59.8350 H   0  0  0  0  0  0  0  0  0  0  0  0
   32.7495   33.6704   58.9339 H   0  0  0  0  0  0  0  0  0  0  0  0
   33.2178   33.3542   56.5351 H   0  0  0  0  0  0  0  0  0  0  0  0
   33.3607   35.3005   55.0455 H   0  0  0  0  0  0  0  0  0  0  0  0
   35.0579   36.5399   52.1303 H   0  0  0  0  0  0  0  0  0  0  0  0
  1 16  1  0  0  0  0
  1  2  2  0  0  0  0
  1 17  1  0  0  0  0
  2  3  1  0  0  0  0
  2 18  1  0  0  0  0
  3  4  1  0  0  0  0
  4  5  1  0  0  0  0
  4 16  2  0  0  0  0
  5  6  1  0  0  0  0
  5 19  1  0  0  0  0
  5 20  1  0  0  0  0
  6 15  1  0  0  0  0
  6  7  1  0  0  0  0
  7  8  1  0  0  0  0
  7 21  1  0  0  0  0
  7 22  1  0  0  0  0
  8  9  1  0  0  0  0
  8 23  1  0  0  0  0
  8 24  1  0  0  0  0
  9 10  1  0  0  0  0
  9 25  1  0  0  0  0
  9 26  1  0  0  0  0
 10 15  2  0  0  0  0
 10 11  1  0  0  0  0
 11 12  2  0  0  0  0
 11 27  1  0  0  0  0
 12 13  1  0  0  0  0
 12 28  1  0  0  0  0
 13 14  2  0  0  0  0
 13 29  1  0  0  0  0
 14 15  1  0  0  0  0
 14 30  1  0  0  0  0
 16 31  1  0  0  0  0
M  END
$$$$
