ZINC000000041136      none
 OpenBabel11202420153D

 29 30  0  0  0  0  0  0  0  0999 V2000
   32.3367   33.4279   61.0223 C   0  0  0  0  0  0  0  0  0  0  0  0
   31.5864   33.5685   59.7229 C   0  0  0  0  0  0  0  0  0  0  0  0
   30.5642   32.9413   59.5420 O   0  0  0  0  0  0  0  0  0  0  0  0
   32.0929   34.4649   58.6760 C   0  0  0  0  0  0  0  0  0  0  0  0
   32.4235   33.9579   57.4138 C   0  0  0  0  0  0  0  0  0  0  0  0
   32.8979   34.8057   56.4363 C   0  0  0  0  0  0  0  0  0  0  0  0
   33.3083   34.1763   54.8713 Cl  0  0  0  0  0  0  0  0  0  0  0  0
   33.0494   36.1595   56.6973 C   0  0  0  0  0  0  0  0  0  0  0  0
   32.7221   36.6739   57.9362 C   0  0  0  0  0  0  0  0  0  0  0  0
   32.2483   35.8363   58.9344 C   0  0  0  0  0  0  0  0  0  0  0  0
   31.9310   36.3403   60.1534 O   0  0  0  0  0  0  0  0  0  0  0  0
   30.6644   36.7655   60.3288 C   0  0  0  0  0  0  0  0  0  0  0  0
   29.8656   36.6874   59.4168 O   0  0  0  0  0  0  0  0  0  0  0  0
   30.2471   37.3261   61.6299 C   0  0  0  0  0  0  0  0  0  0  0  0
   30.8774   38.4638   62.1504 C   0  0  0  0  0  0  0  0  0  0  0  0
   30.4522   38.9463   63.3753 C   0  0  0  0  0  0  0  0  0  0  0  0
   29.4214   38.3019   64.0361 C   0  0  0  0  0  0  0  0  0  0  0  0
   28.8459   37.2319   63.5218 N   0  0  0  0  0  0  0  0  0  0  0  0
   29.2178   36.7318   62.3619 C   0  0  0  0  0  0  0  0  0  0  0  0
   33.2223   34.0630   61.0011 H   0  0  0  0  0  0  0  0  0  0  0  0
   31.6927   33.7300   61.8482 H   0  0  0  0  0  0  0  0  0  0  0  0
   32.6377   32.3891   61.1575 H   0  0  0  0  0  0  0  0  0  0  0  0
   32.3074   32.9043   57.2066 H   0  0  0  0  0  0  0  0  0  0  0  0
   33.4218   36.8163   55.9251 H   0  0  0  0  0  0  0  0  0  0  0  0
   32.8390   37.7300   58.1293 H   0  0  0  0  0  0  0  0  0  0  0  0
   31.6776   38.9493   61.6114 H   0  0  0  0  0  0  0  0  0  0  0  0
   30.9177   39.8186   63.8096 H   0  0  0  0  0  0  0  0  0  0  0  0
   29.0850   38.6788   64.9907 H   0  0  0  0  0  0  0  0  0  0  0  0
   28.7224   35.8542   61.9735 H   0  0  0  0  0  0  0  0  0  0  0  0
  1  2  1  0  0  0  0
  1 20  1  0  0  0  0
  1 21  1  0  0  0  0
  1 22  1  0  0  0  0
  2  3  2  0  0  0  0
  2  4  1  0  0  0  0
  4 10  2  0  0  0  0
  4  5  1  0  0  0  0
  5  6  2  0  0  0  0
  5 23  1  0  0  0  0
  6  7  1  0  0  0  0
  6  8  1  0  0  0  0
  8  9  2  0  0  0  0
  8 24  1  0  0  0  0
  9 10  1  0  0  0  0
  9 25  1  0  0  0  0
 10 11  1  0  0  0  0
 11 12  1  0  0  0  0
 12 13  2  0  0  0  0
 12 14  1  0  0  0  0
 14 19  2  0  0  0  0
 14 15  1  0  0  0  0
 15 16  2  0  0  0  0
 15 26  1  0  0  0  0
 16 17  1  0  0  0  0
 16 27  1  0  0  0  0
 17 18  2  0  0  0  0
 17 28  1  0  0  0  0
 18 19  1  0  0  0  0
 19 29  1  0  0  0  0
M  END
$$$$
