ZINC000000003945      none
 OpenBabel11202420153D

 39 41  0  0  0  0  0  0  0  0999 V2000
   30.7406   32.4617   57.6062 C   0  0  0  0  0  0  0  0  0  0  0  0
   31.8036   33.4056   57.2522 N   0  0  0  0  0  0  0  0  0  0  0  0
   32.7084   33.8764   58.3016 C   0  0  0  0  0  0  0  0  0  0  0  0
   32.5512   35.3653   58.4569 C   0  0  0  0  0  0  0  0  0  0  0  0
   32.1620   36.0482   59.5686 C   0  0  0  0  0  0  0  0  0  0  0  0
   31.8202   35.4634   60.8750 C   0  0  0  0  0  0  0  0  0  0  0  0
   30.9055   34.6681   60.9643 O   0  0  0  0  0  0  0  0  0  0  0  0
   32.5218   35.8098   61.9726 O   0  0  0  0  0  0  0  0  0  0  0  0
   31.7834   36.4288   63.0589 C   0  0  0  0  0  0  0  0  0  0  0  0
   30.6986   35.4683   63.5504 C   0  0  0  0  0  0  0  0  0  0  0  0
   32.7404   36.7488   64.2089 C   0  0  0  0  0  0  0  0  0  0  0  0
   31.1330   37.7214   62.5618 C   0  0  0  0  0  0  0  0  0  0  0  0
   32.1472   37.3705   59.2492 N   0  0  0  0  0  0  0  0  0  0  0  0
   32.5094   37.5124   58.0045 C   0  0  0  0  0  0  0  0  0  0  0  0
   32.7718   36.2873   57.4855 N   0  0  0  0  0  0  0  0  0  0  0  0
   33.2026   35.9810   56.1804 C   0  0  0  0  0  0  0  0  0  0  0  0
   34.0662   36.7763   55.4419 C   0  0  0  0  0  0  0  0  0  0  0  0
   34.4199   36.2914   54.2534 C   0  0  0  0  0  0  0  0  0  0  0  0
   33.6805   34.7852   53.9585 S   0  0  0  0  0  0  0  0  0  0  0  0
   32.8436   34.8274   55.5078 C   0  0  0  0  0  0  0  0  0  0  0  0
   31.9064   33.8112   55.9776 C   0  0  0  0  0  0  0  0  0  0  0  0
   31.1778   33.2900   55.1531 O   0  0  0  0  0  0  0  0  0  0  0  0
   29.8436   33.0135   57.8875 H   0  0  0  0  0  0  0  0  0  0  0  0
   30.5212   31.8238   56.7500 H   0  0  0  0  0  0  0  0  0  0  0  0
   31.0661   31.8457   58.4444 H   0  0  0  0  0  0  0  0  0  0  0  0
   33.7374   33.6454   58.0262 H   0  0  0  0  0  0  0  0  0  0  0  0
   32.4639   33.3841   59.2428 H   0  0  0  0  0  0  0  0  0  0  0  0
   31.1619   34.5473   63.9044 H   0  0  0  0  0  0  0  0  0  0  0  0
   30.1443   35.9330   64.3658 H   0  0  0  0  0  0  0  0  0  0  0  0
   30.0167   35.2403   62.7311 H   0  0  0  0  0  0  0  0  0  0  0  0
   33.5131   37.4330   63.8587 H   0  0  0  0  0  0  0  0  0  0  0  0
   32.1860   37.2134   65.0244 H   0  0  0  0  0  0  0  0  0  0  0  0
   33.2037   35.8280   64.5630 H   0  0  0  0  0  0  0  0  0  0  0  0
   30.4512   37.4934   61.7425 H   0  0  0  0  0  0  0  0  0  0  0  0
   30.5786   38.1861   63.3773 H   0  0  0  0  0  0  0  0  0  0  0  0
   31.9057   38.4057   62.2117 H   0  0  0  0  0  0  0  0  0  0  0  0
   32.5874   38.4503   57.4747 H   0  0  0  0  0  0  0  0  0  0  0  0
   34.4315   37.7243   55.8086 H   0  0  0  0  0  0  0  0  0  0  0  0
   35.0886   36.7880   53.5660 H   0  0  0  0  0  0  0  0  0  0  0  0
  1  2  1  0  0  0  0
  1 23  1  0  0  0  0
  1 24  1  0  0  0  0
  1 25  1  0  0  0  0
  2 21  1  0  0  0  0
  2  3  1  0  0  0  0
  3  4  1  0  0  0  0
  3 26  1  0  0  0  0
  3 27  1  0  0  0  0
  4 15  1  0  0  0  0
  4  5  2  0  0  0  0
  5  6  1  0  0  0  0
  5 13  1  0  0  0  0
  6  7  2  0  0  0  0
  6  8  1  0  0  0  0
  8  9  1  0  0  0  0
  9 10  1  0  0  0  0
  9 11  1  0  0  0  0
  9 12  1  0  0  0  0
 10 28  1  0  0  0  0
 10 29  1  0  0  0  0
 10 30  1  0  0  0  0
 11 31  1  0  0  0  0
 11 32  1  0  0  0  0
 11 33  1  0  0  0  0
 12 34  1  0  0  0  0
 12 35  1  0  0  0  0
 12 36  1  0  0  0  0
 13 14  2  0  0  0  0
 14 15  1  0  0  0  0
 14 37  1  0  0  0  0
 15 16  1  0  0  0  0
 16 20  2  0  0  0  0
 16 17  1  0  0  0  0
 17 18  2  0  0  0  0
 17 38  1  0  0  0  0
 18 19  1  0  0  0  0
 18 39  1  0  0  0  0
 19 20  1  0  0  0  0
 20 21  1  0  0  0  0
 21 22  2  0  0  0  0
M  END
$$$$
