ZINC000000020083      none
 OpenBabel11202420153D

 38 41  0  0  1  0  0  0  0  0999 V2000
   29.2327   36.5077   60.9434 C   0  0  0  0  0  0  0  0  0  0  0  0
   30.5826   36.4614   61.6621 C   0  0  2  0  0  0  0  0  0  0  0  0
   30.4279   36.3920   62.7388 H   0  0  0  0  0  0  0  0  0  0  0  0
   31.3825   37.7054   61.3360 C   0  0  0  0  0  0  0  0  0  0  0  0
   31.4839   38.6133   62.1338 O   0  0  0  0  0  0  0  0  0  0  0  0
   32.0331   37.7746   60.0150 C   0  0  0  0  0  0  0  0  0  0  0  0
   32.5724   38.9868   59.5738 C   0  0  0  0  0  0  0  0  0  0  0  0
   33.1899   39.0658   58.3351 C   0  0  0  0  0  0  0  0  0  0  0  0
   33.7102   40.2458   57.9087 O   0  0  0  0  0  0  0  0  0  0  0  0
   33.2757   37.9309   57.5261 C   0  0  0  0  0  0  0  0  0  0  0  0
   32.7362   36.7110   57.9732 C   0  0  0  0  0  0  0  0  0  0  0  0
   32.1113   36.6315   59.2122 C   0  0  0  0  0  0  0  0  0  0  0  0
   31.5283   35.3168   59.6540 C   0  0  1  0  0  0  0  0  0  0  0  0
   30.5441   35.1929   59.2024 H   0  0  0  0  0  0  0  0  0  0  0  0
   32.3810   34.2571   59.2158 O   0  0  0  0  0  0  0  0  0  0  0  0
   31.3929   35.2539   61.1728 C   0  0  1  0  0  0  0  0  0  0  0  0
   30.8804   34.3339   61.4543 H   0  0  0  0  0  0  0  0  0  0  0  0
   32.6915   35.2781   61.7686 O   0  0  0  0  0  0  0  0  0  0  0  0
   32.9764   35.6961   56.9210 C   0  0  0  0  0  0  0  0  0  0  0  0
   32.6525   34.5261   56.9588 O   0  0  0  0  0  0  0  0  0  0  0  0
   33.6870   36.3781   55.8144 C   0  0  0  0  0  0  0  0  0  0  0  0
   34.1568   35.9274   54.5867 C   0  0  0  0  0  0  0  0  0  0  0  0
   34.7986   36.8038   53.7254 C   0  0  0  0  0  0  0  0  0  0  0  0
   34.9757   38.1253   54.0792 C   0  0  0  0  0  0  0  0  0  0  0  0
   34.5128   38.5937   55.3061 C   0  0  0  0  0  0  0  0  0  0  0  0
   34.6911   39.8951   55.6485 O   0  0  0  0  0  0  0  0  0  0  0  0
   33.8710   37.7218   56.1847 C   0  0  0  0  0  0  0  0  0  0  0  0
   29.3959   36.5586   59.8669 H   0  0  0  0  0  0  0  0  0  0  0  0
   28.6627   35.6100   61.1825 H   0  0  0  0  0  0  0  0  0  0  0  0
   28.6778   37.3877   61.2687 H   0  0  0  0  0  0  0  0  0  0  0  0
   32.5082   39.8643   60.2001 H   0  0  0  0  0  0  0  0  0  0  0  0
   33.6020   40.9732   58.5366 H   0  0  0  0  0  0  0  0  0  0  0  0
   32.5816   34.2793   58.2701 H   0  0  0  0  0  0  0  0  0  0  0  0
   33.2055   36.0701   61.5595 H   0  0  0  0  0  0  0  0  0  0  0  0
   34.0215   34.8941   54.3033 H   0  0  0  0  0  0  0  0  0  0  0  0
   35.1617   36.4500   52.7717 H   0  0  0  0  0  0  0  0  0  0  0  0
   35.4765   38.8004   53.4011 H   0  0  0  0  0  0  0  0  0  0  0  0
   34.3363   40.1252   56.5182 H   0  0  0  0  0  0  0  0  0  0  0  0
  1  2  1  0  0  0  0
  1 28  1  0  0  0  0
  1 29  1  0  0  0  0
  1 30  1  0  0  0  0
  2  3  1  1  0  0  0
  2 16  1  0  0  0  0
  2  4  1  0  0  0  0
  4  5  2  0  0  0  0
  4  6  1  0  0  0  0
  6 12  2  0  0  0  0
  6  7  1  0  0  0  0
  7  8  2  0  0  0  0
  7 31  1  0  0  0  0
  8  9  1  0  0  0  0
  8 10  1  0  0  0  0
  9 32  1  0  0  0  0
 10 27  1  0  0  0  0
 10 11  2  0  0  0  0
 11 12  1  0  0  0  0
 11 19  1  0  0  0  0
 12 13  1  0  0  0  0
 13 14  1  6  0  0  0
 13 15  1  0  0  0  0
 13 16  1  0  0  0  0
 15 33  1  0  0  0  0
 16 17  1  1  0  0  0
 16 18  1  0  0  0  0
 18 34  1  0  0  0  0
 19 20  2  0  0  0  0
 19 21  1  0  0  0  0
 21 27  2  0  0  0  0
 21 22  1  0  0  0  0
 22 23  2  0  0  0  0
 22 35  1  0  0  0  0
 23 24  1  0  0  0  0
 23 36  1  0  0  0  0
 24 25  2  0  0  0  0
 24 37  1  0  0  0  0
 25 26  1  0  0  0  0
 25 27  1  0  0  0  0
 26 38  1  0  0  0  0
M  END
$$$$
