ZINC000000044154      none
 OpenBabel11202420153D

 34 37  0  0  0  0  0  0  0  0999 V2000
   32.1863   34.1876   60.0451 O   0  0  0  0  0  0  0  0  0  0  0  0
   32.4661   34.4465   58.8897 C   0  0  0  0  0  0  0  0  0  0  0  0
   32.9509   33.5939   57.9692 O   0  0  0  0  0  0  0  0  0  0  0  0
   33.1558   34.2106   56.7880 C   0  0  0  0  0  0  0  0  0  0  0  0
   33.6865   33.5452   55.5815 C   0  0  0  0  0  0  0  0  0  0  0  0
   33.3073   33.9875   54.3120 C   0  0  0  0  0  0  0  0  0  0  0  0
   33.8117   33.3651   53.1893 C   0  0  0  0  0  0  0  0  0  0  0  0
   34.6818   32.2968   53.3184 C   0  0  0  0  0  0  0  0  0  0  0  0
   35.0572   31.8496   54.5730 C   0  0  0  0  0  0  0  0  0  0  0  0
   34.5654   32.4665   55.7044 C   0  0  0  0  0  0  0  0  0  0  0  0
   32.8130   35.5144   56.8501 C   0  0  0  0  0  0  0  0  0  0  0  0
   32.3367   35.7559   58.2231 C   0  0  0  0  0  0  0  0  0  0  0  0
   31.8787   36.9413   58.7650 C   0  0  0  0  0  0  0  0  0  0  0  0
   31.2913   36.9542   60.1056 C   0  0  0  0  0  0  0  0  0  0  0  0
   29.9129   36.7551   60.2725 C   0  0  0  0  0  0  0  0  0  0  0  0
   29.3648   36.7677   61.5346 C   0  0  0  0  0  0  0  0  0  0  0  0
   30.1713   36.9775   62.6469 C   0  0  0  0  0  0  0  0  0  0  0  0
   31.5450   37.1763   62.4897 C   0  0  0  0  0  0  0  0  0  0  0  0
   32.1045   37.1652   61.2286 C   0  0  0  0  0  0  0  0  0  0  0  0
   32.1022   37.3567   63.7232 O   0  0  0  0  0  0  0  0  0  0  0  0
   31.1285   36.8600   64.6603 C   0  0  0  0  0  0  0  0  0  0  0  0
   29.8738   37.0345   63.9765 O   0  0  0  0  0  0  0  0  0  0  0  0
   32.6246   34.8180   54.2099 H   0  0  0  0  0  0  0  0  0  0  0  0
   33.5231   33.7091   52.2071 H   0  0  0  0  0  0  0  0  0  0  0  0
   35.0699   31.8101   52.4359 H   0  0  0  0  0  0  0  0  0  0  0  0
   35.7373   31.0158   54.6665 H   0  0  0  0  0  0  0  0  0  0  0  0
   34.8595   32.1168   56.6829 H   0  0  0  0  0  0  0  0  0  0  0  0
   32.8754   36.2380   56.0508 H   0  0  0  0  0  0  0  0  0  0  0  0
   31.9539   37.8583   58.1996 H   0  0  0  0  0  0  0  0  0  0  0  0
   29.2824   36.5919   59.4110 H   0  0  0  0  0  0  0  0  0  0  0  0
   28.3034   36.6142   61.6613 H   0  0  0  0  0  0  0  0  0  0  0  0
   33.1665   37.3192   61.1064 H   0  0  0  0  0  0  0  0  0  0  0  0
   31.1483   37.4457   65.5794 H   0  0  0  0  0  0  0  0  0  0  0  0
   31.3051   35.8057   64.8732 H   0  0  0  0  0  0  0  0  0  0  0  0
  1  2  2  0  0  0  0
  2 12  1  0  0  0  0
  2  3  1  0  0  0  0
  3  4  1  0  0  0  0
  4  5  1  0  0  0  0
  4 11  2  0  0  0  0
  5 10  2  0  0  0  0
  5  6  1  0  0  0  0
  6  7  2  0  0  0  0
  6 23  1  0  0  0  0
  7  8  1  0  0  0  0
  7 24  1  0  0  0  0
  8  9  2  0  0  0  0
  8 25  1  0  0  0  0
  9 10  1  0  0  0  0
  9 26  1  0  0  0  0
 10 27  1  0  0  0  0
 11 12  1  0  0  0  0
 11 28  1  0  0  0  0
 12 13  2  0  0  0  0
 13 14  1  0  0  0  0
 13 29  1  0  0  0  0
 14 19  2  0  0  0  0
 14 15  1  0  0  0  0
 15 16  2  0  0  0  0
 15 30  1  0  0  0  0
 16 17  1  0  0  0  0
 16 31  1  0  0  0  0
 17 22  1  0  0  0  0
 17 18  2  0  0  0  0
 18 19  1  0  0  0  0
 18 20  1  0  0  0  0
 19 32  1  0  0  0  0
 20 21  1  0  0  0  0
 21 22  1  0  0  0  0
 21 33  1  0  0  0  0
 21 34  1  0  0  0  0
M  END
$$$$
