ZINC000000005885      none
 OpenBabel11202420153D

 20 21  0  0  0  0  0  0  0  0999 V2000
   33.6245   40.4700   58.7581 C   0  0  0  0  0  0  0  0  0  0  0  0
   33.0704   39.3647   59.5439 N   0  0  0  0  0  0  0  0  0  0  0  0
   32.9104   38.1159   58.9660 C   0  0  0  0  0  0  0  0  0  0  0  0
   32.4127   37.1138   59.6633 N   0  0  0  0  0  0  0  0  0  0  0  0
   32.2510   35.9035   59.1185 C   0  0  0  0  0  0  0  0  0  0  0  0
   31.5421   34.5084   60.1800 Br  0  0  0  0  0  0  0  0  0  0  0  0
   32.5767   35.6475   57.8378 C   0  0  0  0  0  0  0  0  0  0  0  0
   33.0929   36.6365   57.0394 N   0  0  0  0  0  0  0  0  0  0  0  0
   33.5021   36.6739   55.7474 C   0  0  0  0  0  0  0  0  0  0  0  0
   33.9240   37.9637   55.4984 C   0  0  0  0  0  0  0  0  0  0  0  0
   34.4347   38.4579   54.2551 C   0  0  0  0  0  0  0  0  0  0  0  0
   34.8397   38.8500   53.2688 N   0  0  0  0  0  0  0  0  0  0  0  0
   33.7712   38.6743   56.6289 N   0  0  0  0  0  0  0  0  0  0  0  0
   33.2762   37.8917   57.5662 C   0  0  0  0  0  0  0  0  0  0  0  0
   33.6746   41.3662   59.3766 H   0  0  0  0  0  0  0  0  0  0  0  0
   34.6260   40.2073   58.4173 H   0  0  0  0  0  0  0  0  0  0  0  0
   32.9853   40.6589   57.8957 H   0  0  0  0  0  0  0  0  0  0  0  0
   32.8156   39.5073   60.4689 H   0  0  0  0  0  0  0  0  0  0  0  0
   32.4302   34.6560   57.4356 H   0  0  0  0  0  0  0  0  0  0  0  0
   33.4948   35.8527   55.0460 H   0  0  0  0  0  0  0  0  0  0  0  0
  1  2  1  0  0  0  0
  1 15  1  0  0  0  0
  1 16  1  0  0  0  0
  1 17  1  0  0  0  0
  2  3  1  0  0  0  0
  2 18  1  0  0  0  0
  3 14  1  0  0  0  0
  3  4  2  0  0  0  0
  4  5  1  0  0  0  0
  5  6  1  0  0  0  0
  5  7  2  0  0  0  0
  7  8  1  0  0  0  0
  7 19  1  0  0  0  0
  8 14  1  0  0  0  0
  8  9  1  0  0  0  0
  9 10  2  0  0  0  0
  9 20  1  0  0  0  0
 10 11  1  0  0  0  0
 10 13  1  0  0  0  0
 11 12  3  0  0  0  0
 13 14  2  0  0  0  0
M  END
$$$$
