ZINC000000025885      none
 OpenBabel11202420153D

 26 27  0  0  0  0  0  0  0  0999 V2000
   32.6247   36.0898   63.4641 C   0  0  0  0  0  0  0  0  0  0  0  0
   31.7491   35.4017   62.4488 C   0  0  0  0  0  0  0  0  0  0  0  0
   30.6766   34.7852   62.8308 N   0  0  0  0  0  0  0  0  0  0  0  0
   30.3263   34.7574   64.2026 O   0  0  0  0  0  0  0  0  0  0  0  0
   32.1137   35.4305   61.0215 C   0  0  0  0  0  0  0  0  0  0  0  0
   32.3519   34.2253   60.3363 C   0  0  0  0  0  0  0  0  0  0  0  0
   32.6836   34.2252   59.0206 C   0  0  0  0  0  0  0  0  0  0  0  0
   32.8003   35.4407   58.3200 C   0  0  0  0  0  0  0  0  0  0  0  0
   33.1431   35.4608   56.9579 C   0  0  0  0  0  0  0  0  0  0  0  0
   33.2488   36.6514   56.3057 C   0  0  0  0  0  0  0  0  0  0  0  0
   33.0226   37.8552   56.9696 C   0  0  0  0  0  0  0  0  0  0  0  0
   32.6885   37.8745   58.2894 C   0  0  0  0  0  0  0  0  0  0  0  0
   32.5698   36.6654   58.9945 C   0  0  0  0  0  0  0  0  0  0  0  0
   32.2262   36.6503   60.3607 C   0  0  0  0  0  0  0  0  0  0  0  0
   32.0018   37.8119   61.0237 O   0  0  0  0  0  0  0  0  0  0  0  0
   32.2953   37.1214   63.5885 H   0  0  0  0  0  0  0  0  0  0  0  0
   32.5534   35.5682   64.4186 H   0  0  0  0  0  0  0  0  0  0  0  0
   33.6589   36.0777   63.1199 H   0  0  0  0  0  0  0  0  0  0  0  0
   29.5102   34.2740   64.3904 H   0  0  0  0  0  0  0  0  0  0  0  0
   32.2652   33.2868   60.8636 H   0  0  0  0  0  0  0  0  0  0  0  0
   32.8589   33.2900   58.5096 H   0  0  0  0  0  0  0  0  0  0  0  0
   33.3221   34.5356   56.4301 H   0  0  0  0  0  0  0  0  0  0  0  0
   33.5127   36.6627   55.2585 H   0  0  0  0  0  0  0  0  0  0  0  0
   33.1132   38.7861   56.4295 H   0  0  0  0  0  0  0  0  0  0  0  0
   32.5152   38.8148   58.7915 H   0  0  0  0  0  0  0  0  0  0  0  0
   31.7684   37.6946   61.9547 H   0  0  0  0  0  0  0  0  0  0  0  0
  1  2  1  0  0  0  0
  1 16  1  0  0  0  0
  1 17  1  0  0  0  0
  1 18  1  0  0  0  0
  2  3  2  0  0  0  0
  2  5  1  0  0  0  0
  3  4  1  0  0  0  0
  4 19  1  0  0  0  0
  5 14  2  0  0  0  0
  5  6  1  0  0  0  0
  6  7  2  0  0  0  0
  6 20  1  0  0  0  0
  7  8  1  0  0  0  0
  7 21  1  0  0  0  0
  8 13  2  0  0  0  0
  8  9  1  0  0  0  0
  9 10  2  0  0  0  0
  9 22  1  0  0  0  0
 10 11  1  0  0  0  0
 10 23  1  0  0  0  0
 11 12  2  0  0  0  0
 11 24  1  0  0  0  0
 12 13  1  0  0  0  0
 12 25  1  0  0  0  0
 13 14  1  0  0  0  0
 14 15  1  0  0  0  0
 15 26  1  0  0  0  0
M  END
$$$$
