ZINC000000019458      none
 OpenBabel11202420153D

 30 34  0  0  0  0  0  0  0  0999 V2000
   31.6081   38.5635   62.4926 O   0  0  0  0  0  0  0  0  0  0  0  0
   31.8522   37.8691   61.5227 C   0  0  0  0  0  0  0  0  0  0  0  0
   32.3008   38.4212   60.3781 N   0  0  0  0  0  0  0  0  0  0  0  0
   32.4299   39.3812   60.3271 H   0  0  0  0  0  0  0  0  0  0  0  0
   32.5810   37.6273   59.2656 C   0  0  0  0  0  0  0  0  0  0  0  0
   32.4093   36.2955   59.3155 C   0  0  0  0  0  0  0  0  0  0  0  0
   31.9520   35.6732   60.4616 N   0  0  0  0  0  0  0  0  0  0  0  0
   31.6969   34.3743   60.7683 C   0  0  0  0  0  0  0  0  0  0  0  0
   31.2622   34.3463   62.0532 C   0  0  0  0  0  0  0  0  0  0  0  0
   31.2451   35.5934   62.5202 N   0  0  0  0  0  0  0  0  0  0  0  0
   31.6637   36.4125   61.5778 C   0  0  0  0  0  0  0  0  0  0  0  0
   32.7920   35.7252   57.9714 C   0  0  0  0  0  0  0  0  0  0  0  0
   33.4842   34.3699   57.8573 C   0  0  0  0  0  0  0  0  0  0  0  0
   32.0413   34.5381   57.3746 C   0  0  0  0  0  0  0  0  0  0  0  0
   33.2117   36.8959   57.1253 C   0  0  0  0  0  0  0  0  0  0  0  0
   33.6597   37.0099   55.8284 C   0  0  0  0  0  0  0  0  0  0  0  0
   33.9772   38.2551   55.3136 C   0  0  0  0  0  0  0  0  0  0  0  0
   33.8462   39.3862   56.0999 C   0  0  0  0  0  0  0  0  0  0  0  0
   33.3987   39.2823   57.4002 C   0  0  0  0  0  0  0  0  0  0  0  0
   33.0758   38.0292   57.9269 C   0  0  0  0  0  0  0  0  0  0  0  0
   31.8179   33.5244   60.1129 H   0  0  0  0  0  0  0  0  0  0  0  0
   30.9740   33.4624   62.6028 H   0  0  0  0  0  0  0  0  0  0  0  0
   34.2596   34.2629   57.0989 H   0  0  0  0  0  0  0  0  0  0  0  0
   33.6450   33.8077   58.7773 H   0  0  0  0  0  0  0  0  0  0  0  0
   31.2530   34.0866   57.9770 H   0  0  0  0  0  0  0  0  0  0  0  0
   31.8677   34.5417   56.2986 H   0  0  0  0  0  0  0  0  0  0  0  0
   33.7634   36.1284   55.2132 H   0  0  0  0  0  0  0  0  0  0  0  0
   34.3282   38.3439   54.2960 H   0  0  0  0  0  0  0  0  0  0  0  0
   34.0952   40.3552   55.6931 H   0  0  0  0  0  0  0  0  0  0  0  0
   33.2976   40.1679   58.0100 H   0  0  0  0  0  0  0  0  0  0  0  0
  1  2  2  0  0  0  0
  2 11  1  0  0  0  0
  2  3  1  0  0  0  0
  3  4  1  0  0  0  0
  3  5  1  0  0  0  0
  5 20  1  0  0  0  0
  5  6  2  0  0  0  0
  6  7  1  0  0  0  0
  6 12  1  0  0  0  0
  7 11  1  0  0  0  0
  7  8  1  0  0  0  0
  8  9  2  0  0  0  0
  8 21  1  0  0  0  0
  9 10  1  0  0  0  0
  9 22  1  0  0  0  0
 10 11  2  0  0  0  0
 12 14  1  0  0  0  0
 12 13  1  0  0  0  0
 12 15  1  0  0  0  0
 13 14  1  0  0  0  0
 13 23  1  0  0  0  0
 13 24  1  0  0  0  0
 14 25  1  0  0  0  0
 14 26  1  0  0  0  0
 15 20  2  0  0  0  0
 15 16  1  0  0  0  0
 16 17  2  0  0  0  0
 16 27  1  0  0  0  0
 17 18  1  0  0  0  0
 17 28  1  0  0  0  0
 18 19  2  0  0  0  0
 18 29  1  0  0  0  0
 19 20  1  0  0  0  0
 19 30  1  0  0  0  0
M  END
$$$$
