ZINC000000038580      none
 OpenBabel11202420153D

 38 40  0  0  0  0  0  0  0  0999 V2000
   33.4007   40.1163   57.2923 C   0  0  0  0  0  0  0  0  0  0  0  0
   33.1736   38.6351   57.4517 C   0  0  0  0  0  0  0  0  0  0  0  0
   33.3850   37.6624   56.4648 C   0  0  0  0  0  0  0  0  0  0  0  0
   33.0751   36.4582   56.9929 C   0  0  0  0  0  0  0  0  0  0  0  0
   33.1598   35.1287   56.2887 C   0  0  0  0  0  0  0  0  0  0  0  0
   32.6692   36.6644   58.2765 N   0  0  0  0  0  0  0  0  0  0  0  0
   32.2704   35.7148   59.1459 C   0  0  0  0  0  0  0  0  0  0  0  0
   32.2516   34.5486   58.8054 O   0  0  0  0  0  0  0  0  0  0  0  0
   31.8569   36.0910   60.5096 C   0  0  0  0  0  0  0  0  0  0  0  0
   32.0430   35.1982   61.5699 C   0  0  0  0  0  0  0  0  0  0  0  0
   31.6561   35.5532   62.8421 C   0  0  0  0  0  0  0  0  0  0  0  0
   31.0801   36.7992   63.0738 C   0  0  0  0  0  0  0  0  0  0  0  0
   30.6893   37.1553   64.3636 N   0  0  0  0  0  0  0  0  0  0  0  0
   31.2327   38.2357   64.9583 C   0  0  0  0  0  0  0  0  0  0  0  0
   32.0611   38.8986   64.3709 O   0  0  0  0  0  0  0  0  0  0  0  0
   30.8104   38.6205   66.3527 C   0  0  0  0  0  0  0  0  0  0  0  0
   29.3180   38.8482   66.6015 C   0  0  0  0  0  0  0  0  0  0  0  0
   30.2777   40.0392   66.5633 C   0  0  0  0  0  0  0  0  0  0  0  0
   30.8883   37.6876   62.0206 C   0  0  0  0  0  0  0  0  0  0  0  0
   31.2780   37.3418   60.7466 C   0  0  0  0  0  0  0  0  0  0  0  0
   32.7463   38.0394   58.5336 N   0  0  0  0  0  0  0  0  0  0  0  0
   34.4251   40.3594   57.5745 H   0  0  0  0  0  0  0  0  0  0  0  0
   33.2331   40.3999   56.2533 H   0  0  0  0  0  0  0  0  0  0  0  0
   32.7080   40.6612   57.9339 H   0  0  0  0  0  0  0  0  0  0  0  0
   33.7380   37.8433   55.4603 H   0  0  0  0  0  0  0  0  0  0  0  0
   32.2113   34.9179   55.7948 H   0  0  0  0  0  0  0  0  0  0  0  0
   33.9569   35.1611   55.5459 H   0  0  0  0  0  0  0  0  0  0  0  0
   33.3727   34.3451   57.0160 H   0  0  0  0  0  0  0  0  0  0  0  0
   32.4900   34.2315   61.3908 H   0  0  0  0  0  0  0  0  0  0  0  0
   31.7998   34.8643   63.6615 H   0  0  0  0  0  0  0  0  0  0  0  0
   30.0271   36.6245   64.8337 H   0  0  0  0  0  0  0  0  0  0  0  0
   31.3934   38.1768   67.1598 H   0  0  0  0  0  0  0  0  0  0  0  0
   28.6417   38.7197   65.7564 H   0  0  0  0  0  0  0  0  0  0  0  0
   28.9189   38.5543   67.5721 H   0  0  0  0  0  0  0  0  0  0  0  0
   30.5100   40.5288   67.5092 H   0  0  0  0  0  0  0  0  0  0  0  0
   30.2332   40.6944   65.6934 H   0  0  0  0  0  0  0  0  0  0  0  0
   30.4373   38.6516   62.2036 H   0  0  0  0  0  0  0  0  0  0  0  0
   31.1325   38.0338   59.9302 H   0  0  0  0  0  0  0  0  0  0  0  0
  1  2  1  0  0  0  0
  1 22  1  0  0  0  0
  1 23  1  0  0  0  0
  1 24  1  0  0  0  0
  2 21  2  0  0  0  0
  2  3  1  0  0  0  0
  3  4  2  0  0  0  0
  3 25  1  0  0  0  0
  4  5  1  0  0  0  0
  4  6  1  0  0  0  0
  5 26  1  0  0  0  0
  5 27  1  0  0  0  0
  5 28  1  0  0  0  0
  6  7  1  0  0  0  0
  6 21  1  0  0  0  0
  7  8  2  0  0  0  0
  7  9  1  0  0  0  0
  9 20  2  0  0  0  0
  9 10  1  0  0  0  0
 10 11  2  0  0  0  0
 10 29  1  0  0  0  0
 11 12  1  0  0  0  0
 11 30  1  0  0  0  0
 12 13  1  0  0  0  0
 12 19  2  0  0  0  0
 13 14  1  0  0  0  0
 13 31  1  0  0  0  0
 14 15  2  0  0  0  0
 14 16  1  0  0  0  0
 16 18  1  0  0  0  0
 16 17  1  0  0  0  0
 16 32  1  0  0  0  0
 17 18  1  0  0  0  0
 17 33  1  0  0  0  0
 17 34  1  0  0  0  0
 18 35  1  0  0  0  0
 18 36  1  0  0  0  0
 19 20  1  0  0  0  0
 19 37  1  0  0  0  0
 20 38  1  0  0  0  0
M  END
$$$$
