ZINC000000051241      none
 OpenBabel11202420153D

 33 34  0  0  0  0  0  0  0  0999 V2000
   32.9613   40.4022   57.4828 C   0  0  0  0  0  0  0  0  0  0  0  0
   32.9423   38.6040   57.2449 S   0  0  0  0  0  0  0  0  0  0  0  0
   32.4218   38.0016   58.8168 C   0  0  0  0  0  0  0  0  0  0  0  0
   32.1550   38.7987   59.8065 N   0  0  0  0  0  0  0  0  0  0  0  0
   31.6917   37.8674   61.1415 S   0  0  0  0  0  0  0  0  0  0  0  0
   31.8422   36.3326   60.3840 C   0  0  0  0  0  0  0  0  0  0  0  0
   31.5271   34.7563   61.1055 S   0  0  0  0  0  0  0  0  0  0  0  0
   31.9422   35.1119   62.8310 C   0  0  0  0  0  0  0  0  0  0  0  0
   32.2660   36.5904   59.0840 C   0  0  0  0  0  0  0  0  0  0  0  0
   32.5209   35.5444   58.0918 C   0  0  0  0  0  0  0  0  0  0  0  0
   31.9003   34.4983   58.1372 O   0  0  0  0  0  0  0  0  0  0  0  0
   33.4388   35.7421   57.1248 N   0  0  0  0  0  0  0  0  0  0  0  0
   33.6780   34.7453   56.1734 C   0  0  0  0  0  0  0  0  0  0  0  0
   34.0832   35.0906   54.8905 C   0  0  0  0  0  0  0  0  0  0  0  0
   34.3237   34.1037   53.9549 C   0  0  0  0  0  0  0  0  0  0  0  0
   34.1503   32.7734   54.2907 C   0  0  0  0  0  0  0  0  0  0  0  0
   34.4076   31.6995   53.2652 C   0  0  0  0  0  0  0  0  0  0  0  0
   33.7419   32.4266   55.5654 C   0  0  0  0  0  0  0  0  0  0  0  0
   33.5053   33.4083   56.5075 C   0  0  0  0  0  0  0  0  0  0  0  0
   33.6593   40.6558   58.2807 H   0  0  0  0  0  0  0  0  0  0  0  0
   33.2741   40.8878   56.5585 H   0  0  0  0  0  0  0  0  0  0  0  0
   31.9618   40.7436   57.7524 H   0  0  0  0  0  0  0  0  0  0  0  0
   32.9829   35.4290   62.8966 H   0  0  0  0  0  0  0  0  0  0  0  0
   31.2960   35.9068   63.2037 H   0  0  0  0  0  0  0  0  0  0  0  0
   31.7972   34.2142   63.4321 H   0  0  0  0  0  0  0  0  0  0  0  0
   33.9333   36.5758   57.0887 H   0  0  0  0  0  0  0  0  0  0  0  0
   34.2145   36.1295   54.6264 H   0  0  0  0  0  0  0  0  0  0  0  0
   34.6431   34.3713   52.9585 H   0  0  0  0  0  0  0  0  0  0  0  0
   33.4883   31.4922   52.7176 H   0  0  0  0  0  0  0  0  0  0  0  0
   35.1763   32.0374   52.5702 H   0  0  0  0  0  0  0  0  0  0  0  0
   34.7445   30.7920   53.7662 H   0  0  0  0  0  0  0  0  0  0  0  0
   33.6074   31.3867   55.8246 H   0  0  0  0  0  0  0  0  0  0  0  0
   33.1866   33.1368   57.5031 H   0  0  0  0  0  0  0  0  0  0  0  0
  1  2  1  0  0  0  0
  1 20  1  0  0  0  0
  1 21  1  0  0  0  0
  1 22  1  0  0  0  0
  2  3  1  0  0  0  0
  3  9  1  0  0  0  0
  3  4  2  0  0  0  0
  4  5  1  0  0  0  0
  5  6  1  0  0  0  0
  6  7  1  0  0  0  0
  6  9  2  0  0  0  0
  7  8  1  0  0  0  0
  8 23  1  0  0  0  0
  8 24  1  0  0  0  0
  8 25  1  0  0  0  0
  9 10  1  0  0  0  0
 10 11  2  0  0  0  0
 10 12  1  0  0  0  0
 12 13  1  0  0  0  0
 12 26  1  0  0  0  0
 13 19  2  0  0  0  0
 13 14  1  0  0  0  0
 14 15  2  0  0  0  0
 14 27  1  0  0  0  0
 15 16  1  0  0  0  0
 15 28  1  0  0  0  0
 16 17  1  0  0  0  0
 16 18  2  0  0  0  0
 17 29  1  0  0  0  0
 17 30  1  0  0  0  0
 17 31  1  0  0  0  0
 18 19  1  0  0  0  0
 18 32  1  0  0  0  0
 19 33  1  0  0  0  0
M  END
$$$$
