ZINC000000033912      none
 OpenBabel11202420153D

 33 36  0  0  0  0  0  0  0  0999 V2000
   32.9407   36.0687   56.4022 O   0  0  0  0  0  0  0  0  0  0  0  0
   32.9634   37.0335   57.1468 C   0  0  0  0  0  0  0  0  0  0  0  0
   33.3141   38.2909   56.8072 N   0  0  0  0  0  0  0  0  0  0  0  0
   33.5935   38.5899   55.9277 H   0  0  0  0  0  0  0  0  0  0  0  0
   33.2016   39.0869   57.9546 N   0  0  0  0  0  0  0  0  0  0  0  0
   32.7960   38.3199   58.9422 C   0  0  0  0  0  0  0  0  0  0  0  0
   32.5383   38.5971   60.2333 N   0  0  0  0  0  0  0  0  0  0  0  0
   32.1359   37.6536   61.0567 C   0  0  0  0  0  0  0  0  0  0  0  0
   31.8577   37.9770   62.4736 C   0  0  0  0  0  0  0  0  0  0  0  0
   32.5684   37.3383   63.4907 C   0  0  0  0  0  0  0  0  0  0  0  0
   32.3079   37.6482   64.8096 C   0  0  0  0  0  0  0  0  0  0  0  0
   31.3371   38.5822   65.1252 C   0  0  0  0  0  0  0  0  0  0  0  0
   30.6249   39.2147   64.1216 C   0  0  0  0  0  0  0  0  0  0  0  0
   30.8794   38.9176   62.7986 C   0  0  0  0  0  0  0  0  0  0  0  0
   31.9631   36.2770   60.5686 C   0  0  0  0  0  0  0  0  0  0  0  0
   31.5106   35.2072   61.4890 C   0  0  0  0  0  0  0  0  0  0  0  0
   32.3134   34.0892   61.7111 C   0  0  0  0  0  0  0  0  0  0  0  0
   31.8887   33.0984   62.5727 C   0  0  0  0  0  0  0  0  0  0  0  0
   30.6646   33.2079   63.2074 C   0  0  0  0  0  0  0  0  0  0  0  0
   29.8615   34.3125   62.9873 C   0  0  0  0  0  0  0  0  0  0  0  0
   30.2776   35.3121   62.1317 C   0  0  0  0  0  0  0  0  0  0  0  0
   32.2144   36.0063   59.3093 N   0  0  0  0  0  0  0  0  0  0  0  0
   32.6420   37.0338   58.4561 N   0  0  0  0  0  0  0  0  0  0  0  0
   33.3233   36.6059   63.2458 H   0  0  0  0  0  0  0  0  0  0  0  0
   32.8603   37.1579   65.5976 H   0  0  0  0  0  0  0  0  0  0  0  0
   31.1339   38.8182   66.1593 H   0  0  0  0  0  0  0  0  0  0  0  0
   29.8683   39.9427   64.3745 H   0  0  0  0  0  0  0  0  0  0  0  0
   30.3231   39.4124   62.0161 H   0  0  0  0  0  0  0  0  0  0  0  0
   33.2676   34.0006   61.2129 H   0  0  0  0  0  0  0  0  0  0  0  0
   32.5115   32.2337   62.7483 H   0  0  0  0  0  0  0  0  0  0  0  0
   30.3343   32.4278   63.8773 H   0  0  0  0  0  0  0  0  0  0  0  0
   28.9067   34.3927   63.4857 H   0  0  0  0  0  0  0  0  0  0  0  0
   29.6499   36.1741   61.9605 H   0  0  0  0  0  0  0  0  0  0  0  0
  1  2  2  0  0  0  0
  2 23  1  0  0  0  0
  2  3  1  0  0  0  0
  3  4  1  0  0  0  0
  3  5  1  0  0  0  0
  5  6  2  0  0  0  0
  6 23  1  0  0  0  0
  6  7  1  0  0  0  0
  7  8  2  0  0  0  0
  8  9  1  0  0  0  0
  8 15  1  0  0  0  0
  9 14  2  0  0  0  0
  9 10  1  0  0  0  0
 10 11  2  0  0  0  0
 10 24  1  0  0  0  0
 11 12  1  0  0  0  0
 11 25  1  0  0  0  0
 12 13  2  0  0  0  0
 12 26  1  0  0  0  0
 13 14  1  0  0  0  0
 13 27  1  0  0  0  0
 14 28  1  0  0  0  0
 15 16  1  0  0  0  0
 15 22  2  0  0  0  0
 16 21  2  0  0  0  0
 16 17  1  0  0  0  0
 17 18  2  0  0  0  0
 17 29  1  0  0  0  0
 18 19  1  0  0  0  0
 18 30  1  0  0  0  0
 19 20  2  0  0  0  0
 19 31  1  0  0  0  0
 20 21  1  0  0  0  0
 20 32  1  0  0  0  0
 21 33  1  0  0  0  0
 22 23  1  0  0  0  0
M  END
$$$$
