ZINC000000029278      none
 OpenBabel11202420163D

 35 36  0  0  1  0  0  0  0  0999 V2000
   33.1269   37.8370   66.8182 C   0  0  0  0  0  0  0  0  0  0  0  0
   32.3275   38.1929   65.5630 C   0  0  2  0  0  0  0  0  0  0  0  0
   32.7771   39.0599   65.0789 H   0  0  0  0  0  0  0  0  0  0  0  0
   30.8833   38.5169   65.9520 C   0  0  0  0  0  0  0  0  0  0  0  0
   30.0914   38.9048   64.7004 C   0  0  0  0  0  0  0  0  0  0  0  0
   30.0767   37.7246   63.7237 C   0  0  0  0  0  0  0  0  0  0  0  0
   31.4620   37.3134   63.4579 N   0  0  0  0  0  0  0  0  0  0  0  0
   31.9205   37.2218   62.1939 C   0  0  0  0  0  0  0  0  0  0  0  0
   33.0662   36.8812   61.9875 O   0  0  0  0  0  0  0  0  0  0  0  0
   31.0097   37.5423   61.0368 C   0  0  0  0  0  0  0  0  0  0  0  0
   31.7600   37.3630   59.7422 C   0  0  0  0  0  0  0  0  0  0  0  0
   32.4474   38.4269   59.1887 C   0  0  0  0  0  0  0  0  0  0  0  0
   33.1389   38.2613   58.0032 C   0  0  0  0  0  0  0  0  0  0  0  0
   33.1361   37.0341   57.3670 C   0  0  0  0  0  0  0  0  0  0  0  0
   32.4444   35.9716   57.9178 C   0  0  0  0  0  0  0  0  0  0  0  0
   31.7561   36.1360   59.1054 C   0  0  0  0  0  0  0  0  0  0  0  0
   32.3381   37.0047   64.5962 C   0  0  0  0  0  0  0  0  0  0  0  0
   34.1551   37.6054   66.5405 H   0  0  0  0  0  0  0  0  0  0  0  0
   33.1181   38.6824   67.5063 H   0  0  0  0  0  0  0  0  0  0  0  0
   32.6770   36.9701   67.3019 H   0  0  0  0  0  0  0  0  0  0  0  0
   30.4264   37.6415   66.4137 H   0  0  0  0  0  0  0  0  0  0  0  0
   30.8751   39.3462   66.6594 H   0  0  0  0  0  0  0  0  0  0  0  0
   30.5622   39.7650   64.2243 H   0  0  0  0  0  0  0  0  0  0  0  0
   29.0690   39.1582   64.9803 H   0  0  0  0  0  0  0  0  0  0  0  0
   29.6002   38.0277   62.7914 H   0  0  0  0  0  0  0  0  0  0  0  0
   29.5268   36.8929   64.1639 H   0  0  0  0  0  0  0  0  0  0  0  0
   30.1502   36.8721   61.0545 H   0  0  0  0  0  0  0  0  0  0  0  0
   30.6677   38.5741   61.1187 H   0  0  0  0  0  0  0  0  0  0  0  0
   32.4467   39.3867   59.6839 H   0  0  0  0  0  0  0  0  0  0  0  0
   33.6791   39.0916   57.5726 H   0  0  0  0  0  0  0  0  0  0  0  0
   33.6741   36.9055   56.4394 H   0  0  0  0  0  0  0  0  0  0  0  0
   32.4419   35.0128   57.4206 H   0  0  0  0  0  0  0  0  0  0  0  0
   31.2156   35.3059   59.5357 H   0  0  0  0  0  0  0  0  0  0  0  0
   33.3536   36.8328   64.2396 H   0  0  0  0  0  0  0  0  0  0  0  0
   31.9726   36.1143   65.1077 H   0  0  0  0  0  0  0  0  0  0  0  0
  1  2  1  0  0  0  0
  1 18  1  0  0  0  0
  1 19  1  0  0  0  0
  1 20  1  0  0  0  0
  2  3  1  6  0  0  0
  2 17  1  0  0  0  0
  2  4  1  0  0  0  0
  4  5  1  0  0  0  0
  4 21  1  0  0  0  0
  4 22  1  0  0  0  0
  5  6  1  0  0  0  0
  5 23  1  0  0  0  0
  5 24  1  0  0  0  0
  6  7  1  0  0  0  0
  6 25  1  0  0  0  0
  6 26  1  0  0  0  0
  7  8  1  0  0  0  0
  7 17  1  0  0  0  0
  8  9  2  0  0  0  0
  8 10  1  0  0  0  0
 10 11  1  0  0  0  0
 10 27  1  0  0  0  0
 10 28  1  0  0  0  0
 11 16  2  0  0  0  0
 11 12  1  0  0  0  0
 12 13  2  0  0  0  0
 12 29  1  0  0  0  0
 13 14  1  0  0  0  0
 13 30  1  0  0  0  0
 14 15  2  0  0  0  0
 14 31  1  0  0  0  0
 15 16  1  0  0  0  0
 15 32  1  0  0  0  0
 16 33  1  0  0  0  0
 17 34  1  0  0  0  0
 17 35  1  0  0  0  0
M  END
$$$$
