ZINC000000042667      none
 OpenBabel11202420153D

 37 38  0  0  0  0  0  0  0  0999 V2000
   33.8213   36.9792   64.7386 O   0  0  0  0  0  0  0  0  0  0  0  0
   32.7863   36.3475   64.7107 C   0  0  0  0  0  0  0  0  0  0  0  0
   32.3103   35.7376   63.4176 C   0  0  0  0  0  0  0  0  0  0  0  0
   30.6840   36.4186   62.9904 S   0  0  0  0  0  0  0  0  0  0  0  0
   31.0946   38.0272   62.2595 C   0  0  0  0  0  0  0  0  0  0  0  0
   31.5306   37.8328   60.8301 C   0  0  0  0  0  0  0  0  0  0  0  0
   31.0834   36.9121   60.1795 O   0  0  0  0  0  0  0  0  0  0  0  0
   32.4220   38.6788   60.2766 N   0  0  0  0  0  0  0  0  0  0  0  0
   32.8316   38.4948   58.9500 C   0  0  0  0  0  0  0  0  0  0  0  0
   32.8606   37.2201   58.4013 C   0  0  0  0  0  0  0  0  0  0  0  0
   33.2647   37.0416   57.0924 C   0  0  0  0  0  0  0  0  0  0  0  0
   33.6407   38.1308   56.3278 C   0  0  0  0  0  0  0  0  0  0  0  0
   33.6140   39.4025   56.8699 C   0  0  0  0  0  0  0  0  0  0  0  0
   33.2047   39.5893   58.1778 C   0  0  0  0  0  0  0  0  0  0  0  0
   33.1727   40.8324   58.7058 F   0  0  0  0  0  0  0  0  0  0  0  0
   32.0619   36.1909   65.8365 N   0  0  0  0  0  0  0  0  0  0  0  0
   32.5037   36.7573   67.0374 C   0  0  0  0  0  0  0  0  0  0  0  0
   32.1868   36.1561   68.2484 C   0  0  0  0  0  0  0  0  0  0  0  0
   32.6290   36.7148   69.4315 C   0  0  0  0  0  0  0  0  0  0  0  0
   33.3772   37.8775   69.4118 C   0  0  0  0  0  0  0  0  0  0  0  0
   33.6897   38.4815   68.2078 C   0  0  0  0  0  0  0  0  0  0  0  0
   33.2554   37.9248   67.0208 C   0  0  0  0  0  0  0  0  0  0  0  0
   32.2326   34.6565   63.5325 H   0  0  0  0  0  0  0  0  0  0  0  0
   33.0208   35.9686   62.6237 H   0  0  0  0  0  0  0  0  0  0  0  0
   31.9030   38.4884   62.8266 H   0  0  0  0  0  0  0  0  0  0  0  0
   30.2171   38.6733   62.2868 H   0  0  0  0  0  0  0  0  0  0  0  0
   32.7797   39.4151   60.7969 H   0  0  0  0  0  0  0  0  0  0  0  0
   32.5679   36.3684   58.9974 H   0  0  0  0  0  0  0  0  0  0  0  0
   33.2873   36.0498   56.6657 H   0  0  0  0  0  0  0  0  0  0  0  0
   33.9564   37.9877   55.3050 H   0  0  0  0  0  0  0  0  0  0  0  0
   33.9087   40.2510   56.2702 H   0  0  0  0  0  0  0  0  0  0  0  0
   31.2341   35.6857   65.8142 H   0  0  0  0  0  0  0  0  0  0  0  0
   31.5989   35.2502   68.2647 H   0  0  0  0  0  0  0  0  0  0  0  0
   32.3865   36.2452   70.3734 H   0  0  0  0  0  0  0  0  0  0  0  0
   33.7181   38.3148   70.3386 H   0  0  0  0  0  0  0  0  0  0  0  0
   34.2743   39.3896   68.1957 H   0  0  0  0  0  0  0  0  0  0  0  0
   33.4999   38.3973   66.0808 H   0  0  0  0  0  0  0  0  0  0  0  0
  1  2  2  0  0  0  0
  2  3  1  0  0  0  0
  2 16  1  0  0  0  0
  3  4  1  0  0  0  0
  3 23  1  0  0  0  0
  3 24  1  0  0  0  0
  4  5  1  0  0  0  0
  5  6  1  0  0  0  0
  5 25  1  0  0  0  0
  5 26  1  0  0  0  0
  6  7  2  0  0  0  0
  6  8  1  0  0  0  0
  8  9  1  0  0  0  0
  8 27  1  0  0  0  0
  9 14  2  0  0  0  0
  9 10  1  0  0  0  0
 10 11  2  0  0  0  0
 10 28  1  0  0  0  0
 11 12  1  0  0  0  0
 11 29  1  0  0  0  0
 12 13  2  0  0  0  0
 12 30  1  0  0  0  0
 13 14  1  0  0  0  0
 13 31  1  0  0  0  0
 14 15  1  0  0  0  0
 16 17  1  0  0  0  0
 16 32  1  0  0  0  0
 17 22  2  0  0  0  0
 17 18  1  0  0  0  0
 18 19  2  0  0  0  0
 18 33  1  0  0  0  0
 19 20  1  0  0  0  0
 19 34  1  0  0  0  0
 20 21  2  0  0  0  0
 20 35  1  0  0  0  0
 21 22  1  0  0  0  0
 21 36  1  0  0  0  0
 22 37  1  0  0  0  0
M  END
$$$$
