ZINC000000035966      none
 OpenBabel11202420153D

 48 49  0  0  1  0  0  0  0  0999 V2000
   33.7058   38.4614   56.6209 C   0  0  0  0  0  0  0  0  0  0  0  0
   33.3772   38.8421   57.9585 O   0  0  0  0  0  0  0  0  0  0  0  0
   32.8161   37.8910   58.7505 C   0  0  0  0  0  0  0  0  0  0  0  0
   32.4714   38.1920   60.0602 C   0  0  0  0  0  0  0  0  0  0  0  0
   31.9061   37.2218   60.8649 C   0  0  0  0  0  0  0  0  0  0  0  0
   31.6735   35.9548   60.3626 C   0  0  0  0  0  0  0  0  0  0  0  0
   31.0517   34.8999   61.2411 C   0  0  1  0  0  0  0  0  0  0  0  0
   29.9668   34.9397   61.1441 H   0  0  0  0  0  0  0  0  0  0  0  0
   31.5518   33.5191   60.8118 C   0  0  0  0  0  0  0  0  0  0  0  0
   31.4265   35.1431   62.6363 N   0  0  0  0  0  0  0  0  0  0  0  0
   30.5926   34.7807   63.6311 C   0  0  0  0  0  0  0  0  0  0  0  0
   29.5292   34.2519   63.3706 O   0  0  0  0  0  0  0  0  0  0  0  0
   30.9703   35.0259   65.0370 C   0  0  0  0  0  0  0  0  0  0  0  0
   30.4604   34.2110   66.0506 C   0  0  0  0  0  0  0  0  0  0  0  0
   30.8199   34.4395   67.3658 C   0  0  0  0  0  0  0  0  0  0  0  0
   30.3278   33.6434   68.3527 O   0  0  0  0  0  0  0  0  0  0  0  0
   29.0952   34.0436   68.9549 C   0  0  0  0  0  0  0  0  0  0  0  0
   31.6805   35.4875   67.6815 C   0  0  0  0  0  0  0  0  0  0  0  0
   32.0274   35.7138   68.9758 O   0  0  0  0  0  0  0  0  0  0  0  0
   31.6894   36.9892   69.5246 C   0  0  0  0  0  0  0  0  0  0  0  0
   32.1858   36.3042   66.6736 C   0  0  0  0  0  0  0  0  0  0  0  0
   33.0262   37.3271   66.9852 O   0  0  0  0  0  0  0  0  0  0  0  0
   33.5068   38.1250   65.9016 C   0  0  0  0  0  0  0  0  0  0  0  0
   31.8335   36.0767   65.3564 C   0  0  0  0  0  0  0  0  0  0  0  0
   32.0156   35.6524   59.0576 C   0  0  0  0  0  0  0  0  0  0  0  0
   32.5865   36.6173   58.2505 C   0  0  0  0  0  0  0  0  0  0  0  0
   34.4209   37.6391   56.6424 H   0  0  0  0  0  0  0  0  0  0  0  0
   32.8019   38.1434   56.1013 H   0  0  0  0  0  0  0  0  0  0  0  0
   34.1452   39.3114   56.0987 H   0  0  0  0  0  0  0  0  0  0  0  0
   32.6492   39.1828   60.4517 H   0  0  0  0  0  0  0  0  0  0  0  0
   31.6418   37.4545   61.8859 H   0  0  0  0  0  0  0  0  0  0  0  0
   32.6368   33.4794   60.9088 H   0  0  0  0  0  0  0  0  0  0  0  0
   31.1020   32.7562   61.4472 H   0  0  0  0  0  0  0  0  0  0  0  0
   31.2729   33.3381   59.7739 H   0  0  0  0  0  0  0  0  0  0  0  0
   32.2750   35.5650   62.8441 H   0  0  0  0  0  0  0  0  0  0  0  0
   29.7893   33.4009   65.8067 H   0  0  0  0  0  0  0  0  0  0  0  0
   28.3154   34.0834   68.1945 H   0  0  0  0  0  0  0  0  0  0  0  0
   28.8162   33.3235   69.7243 H   0  0  0  0  0  0  0  0  0  0  0  0
   29.2142   35.0290   69.4054 H   0  0  0  0  0  0  0  0  0  0  0  0
   32.1795   37.7740   68.9485 H   0  0  0  0  0  0  0  0  0  0  0  0
   30.6091   37.1282   69.4824 H   0  0  0  0  0  0  0  0  0  0  0  0
   32.0218   37.0381   70.5616 H   0  0  0  0  0  0  0  0  0  0  0  0
   32.6633   38.5854   65.3873 H   0  0  0  0  0  0  0  0  0  0  0  0
   34.1656   38.9028   66.2874 H   0  0  0  0  0  0  0  0  0  0  0  0
   34.0581   37.4953   65.2033 H   0  0  0  0  0  0  0  0  0  0  0  0
   32.2252   36.7110   64.5749 H   0  0  0  0  0  0  0  0  0  0  0  0
   31.8366   34.6607   58.6688 H   0  0  0  0  0  0  0  0  0  0  0  0
   32.8542   36.3805   57.2315 H   0  0  0  0  0  0  0  0  0  0  0  0
  1  2  1  0  0  0  0
  1 27  1  0  0  0  0
  1 28  1  0  0  0  0
  1 29  1  0  0  0  0
  2  3  1  0  0  0  0
  3 26  2  0  0  0  0
  3  4  1  0  0  0  0
  4  5  2  0  0  0  0
  4 30  1  0  0  0  0
  5  6  1  0  0  0  0
  5 31  1  0  0  0  0
  6  7  1  0  0  0  0
  6 25  2  0  0  0  0
  7  8  1  6  0  0  0
  7  9  1  0  0  0  0
  7 10  1  0  0  0  0
  9 32  1  0  0  0  0
  9 33  1  0  0  0  0
  9 34  1  0  0  0  0
 10 11  1  0  0  0  0
 10 35  1  0  0  0  0
 11 12  2  0  0  0  0
 11 13  1  0  0  0  0
 13 24  2  0  0  0  0
 13 14  1  0  0  0  0
 14 15  2  0  0  0  0
 14 36  1  0  0  0  0
 15 16  1  0  0  0  0
 15 18  1  0  0  0  0
 16 17  1  0  0  0  0
 17 37  1  0  0  0  0
 17 38  1  0  0  0  0
 17 39  1  0  0  0  0
 18 19  1  0  0  0  0
 18 21  2  0  0  0  0
 19 20  1  0  0  0  0
 20 40  1  0  0  0  0
 20 41  1  0  0  0  0
 20 42  1  0  0  0  0
 21 22  1  0  0  0  0
 21 24  1  0  0  0  0
 22 23  1  0  0  0  0
 23 43  1  0  0  0  0
 23 44  1  0  0  0  0
 23 45  1  0  0  0  0
 24 46  1  0  0  0  0
 25 26  1  0  0  0  0
 25 47  1  0  0  0  0
 26 48  1  0  0  0  0
M  END
$$$$
