ZINC000000051766      none
 OpenBabel11202420153D

 37 39  0  0  0  0  0  0  0  0999 V2000
   31.0678   38.3499   57.8801 O   0  0  0  0  0  0  0  0  0  0  0  0
   32.1178   37.7826   58.1111 C   0  0  0  0  0  0  0  0  0  0  0  0
   32.5402   37.6380   59.3827 N   0  0  0  0  0  0  0  0  0  0  0  0
   31.7340   38.1648   60.4867 C   0  0  0  0  0  0  0  0  0  0  0  0
   31.9492   37.3179   61.7145 C   0  0  0  0  0  0  0  0  0  0  0  0
   31.8509   37.8851   62.9713 C   0  0  0  0  0  0  0  0  0  0  0  0
   32.0435   37.1071   64.0977 C   0  0  0  0  0  0  0  0  0  0  0  0
   32.3443   35.7644   63.9670 C   0  0  0  0  0  0  0  0  0  0  0  0
   32.4482   35.1984   62.7102 C   0  0  0  0  0  0  0  0  0  0  0  0
   32.2504   35.9752   61.5839 C   0  0  0  0  0  0  0  0  0  0  0  0
   32.9311   37.2513   56.9974 C   0  0  0  0  0  0  0  0  0  0  0  0
   33.4137   38.1113   56.0101 C   0  0  0  0  0  0  0  0  0  0  0  0
   34.1802   37.6068   54.9726 C   0  0  0  0  0  0  0  0  0  0  0  0
   34.6717   38.4685   53.9812 N   0  0  0  0  0  0  0  0  0  0  0  0
   34.9093   38.1243   52.7027 C   0  0  0  0  0  0  0  0  0  0  0  0
   34.7351   37.0244   52.2194 O   0  0  0  0  0  0  0  0  0  0  0  0
   35.4157   39.3147   51.9845 C   0  0  0  0  0  0  0  0  0  0  0  0
   35.4641   40.3160   52.8790 C   0  0  0  0  0  0  0  0  0  0  0  0
   34.9831   39.7642   54.1649 C   0  0  0  0  0  0  0  0  0  0  0  0
   34.8863   40.3767   55.2085 O   0  0  0  0  0  0  0  0  0  0  0  0
   34.4580   36.2466   54.9103 C   0  0  0  0  0  0  0  0  0  0  0  0
   33.9812   35.3932   55.8868 C   0  0  0  0  0  0  0  0  0  0  0  0
   33.2200   35.8862   56.9293 C   0  0  0  0  0  0  0  0  0  0  0  0
   32.6227   34.8097   58.1534 Cl  0  0  0  0  0  0  0  0  0  0  0  0
   33.3781   37.1852   59.5670 H   0  0  0  0  0  0  0  0  0  0  0  0
   32.0326   39.1918   60.6968 H   0  0  0  0  0  0  0  0  0  0  0  0
   30.6799   38.1421   60.2098 H   0  0  0  0  0  0  0  0  0  0  0  0
   31.6197   38.9351   63.0733 H   0  0  0  0  0  0  0  0  0  0  0  0
   31.9625   37.5494   65.0796 H   0  0  0  0  0  0  0  0  0  0  0  0
   32.4985   35.1574   64.8469 H   0  0  0  0  0  0  0  0  0  0  0  0
   32.6835   34.1493   62.6081 H   0  0  0  0  0  0  0  0  0  0  0  0
   32.3316   35.5329   60.6019 H   0  0  0  0  0  0  0  0  0  0  0  0
   33.1938   39.1676   56.0571 H   0  0  0  0  0  0  0  0  0  0  0  0
   35.6963   39.3675   50.9430 H   0  0  0  0  0  0  0  0  0  0  0  0
   35.7915   41.3287   52.6951 H   0  0  0  0  0  0  0  0  0  0  0  0
   35.0529   35.8556   54.0980 H   0  0  0  0  0  0  0  0  0  0  0  0
   34.2044   34.3378   55.8351 H   0  0  0  0  0  0  0  0  0  0  0  0
  1  2  2  0  0  0  0
  2  3  1  0  0  0  0
  2 11  1  0  0  0  0
  3  4  1  0  0  0  0
  3 25  1  0  0  0  0
  4  5  1  0  0  0  0
  4 26  1  0  0  0  0
  4 27  1  0  0  0  0
  5 10  2  0  0  0  0
  5  6  1  0  0  0  0
  6  7  2  0  0  0  0
  6 28  1  0  0  0  0
  7  8  1  0  0  0  0
  7 29  1  0  0  0  0
  8  9  2  0  0  0  0
  8 30  1  0  0  0  0
  9 10  1  0  0  0  0
  9 31  1  0  0  0  0
 10 32  1  0  0  0  0
 11 23  2  0  0  0  0
 11 12  1  0  0  0  0
 12 13  2  0  0  0  0
 12 33  1  0  0  0  0
 13 14  1  0  0  0  0
 13 21  1  0  0  0  0
 14 19  1  0  0  0  0
 14 15  1  0  0  0  0
 15 16  2  0  0  0  0
 15 17  1  0  0  0  0
 17 18  2  0  0  0  0
 17 34  1  0  0  0  0
 18 19  1  0  0  0  0
 18 35  1  0  0  0  0
 19 20  2  0  0  0  0
 21 22  2  0  0  0  0
 21 36  1  0  0  0  0
 22 23  1  0  0  0  0
 22 37  1  0  0  0  0
 23 24  1  0  0  0  0
M  END
$$$$
