ZINC000000039839      none
 OpenBabel11202420153D

 25 26  0  0  0  0  0  0  0  0999 V2000
   31.5638   37.3779   59.3003 C   0  0  0  0  0  0  0  0  0  0  0  0
   32.5206   37.8246   58.2251 C   0  0  0  0  0  0  0  0  0  0  0  0
   32.9372   39.0401   58.0378 N   0  0  0  0  0  0  0  0  0  0  0  0
   33.8197   39.0328   56.9294 O   0  0  0  0  0  0  0  0  0  0  0  0
   33.9047   37.6975   56.4626 N   0  0  0  0  0  0  0  0  0  0  0  0
   33.1343   36.9632   57.2181 C   0  0  0  0  0  0  0  0  0  0  0  0
   32.9357   35.5888   57.0894 N   0  0  0  0  0  0  0  0  0  0  0  0
   33.5695   34.9046   56.1166 C   0  0  0  0  0  0  0  0  0  0  0  0
   34.3143   35.4854   55.3510 O   0  0  0  0  0  0  0  0  0  0  0  0
   33.3776   33.5763   55.9922 N   0  0  0  0  0  0  0  0  0  0  0  0
   34.0355   32.8658   54.9817 C   0  0  0  0  0  0  0  0  0  0  0  0
   33.4493   32.7144   53.7275 C   0  0  0  0  0  0  0  0  0  0  0  0
   34.1370   31.9985   52.7617 C   0  0  0  0  0  0  0  0  0  0  0  0
   35.3782   31.4714   53.0678 C   0  0  0  0  0  0  0  0  0  0  0  0
   35.9081   31.6367   54.2638 N   0  0  0  0  0  0  0  0  0  0  0  0
   35.2851   32.3062   55.2131 C   0  0  0  0  0  0  0  0  0  0  0  0
   32.1245   37.0957   60.1913 H   0  0  0  0  0  0  0  0  0  0  0  0
   30.8831   38.1941   59.5427 H   0  0  0  0  0  0  0  0  0  0  0  0
   30.9915   36.5211   58.9445 H   0  0  0  0  0  0  0  0  0  0  0  0
   32.3415   35.1254   57.7002 H   0  0  0  0  0  0  0  0  0  0  0  0
   32.7833   33.1129   56.6029 H   0  0  0  0  0  0  0  0  0  0  0  0
   32.4804   33.1414   53.5145 H   0  0  0  0  0  0  0  0  0  0  0  0
   33.7110   31.8576   51.7794 H   0  0  0  0  0  0  0  0  0  0  0  0
   35.9208   30.9161   52.3171 H   0  0  0  0  0  0  0  0  0  0  0  0
   35.7513   32.4209   56.1804 H   0  0  0  0  0  0  0  0  0  0  0  0
  1  2  1  0  0  0  0
  1 17  1  0  0  0  0
  1 18  1  0  0  0  0
  1 19  1  0  0  0  0
  2  6  1  0  0  0  0
  2  3  2  0  0  0  0
  3  4  1  0  0  0  0
  4  5  1  0  0  0  0
  5  6  2  0  0  0  0
  6  7  1  0  0  0  0
  7  8  1  0  0  0  0
  7 20  1  0  0  0  0
  8  9  2  0  0  0  0
  8 10  1  0  0  0  0
 10 11  1  0  0  0  0
 10 21  1  0  0  0  0
 11 16  2  0  0  0  0
 11 12  1  0  0  0  0
 12 13  2  0  0  0  0
 12 22  1  0  0  0  0
 13 14  1  0  0  0  0
 13 23  1  0  0  0  0
 14 15  2  0  0  0  0
 14 24  1  0  0  0  0
 15 16  1  0  0  0  0
 16 25  1  0  0  0  0
M  END
$$$$
