ZINC000000047122      none
 OpenBabel11202420153D

 37 38  0  0  0  0  0  0  0  0999 V2000
   30.9762   33.9967   60.1910 C   0  0  0  0  0  0  0  0  0  0  0  0
   31.4821   34.9404   59.2101 O   0  0  0  0  0  0  0  0  0  0  0  0
   32.1792   35.9948   59.6782 C   0  0  0  0  0  0  0  0  0  0  0  0
   32.3594   36.1221   60.8735 O   0  0  0  0  0  0  0  0  0  0  0  0
   32.7220   36.9918   58.7422 C   0  0  0  0  0  0  0  0  0  0  0  0
   32.8713   38.3245   59.1436 C   0  0  0  0  0  0  0  0  0  0  0  0
   33.3849   39.2541   58.2643 C   0  0  0  0  0  0  0  0  0  0  0  0
   33.5353   40.5483   58.6565 O   0  0  0  0  0  0  0  0  0  0  0  0
   34.7851   40.9054   59.2498 C   0  0  0  0  0  0  0  0  0  0  0  0
   33.7466   38.8722   56.9711 C   0  0  0  0  0  0  0  0  0  0  0  0
   34.2474   39.7939   56.1089 O   0  0  0  0  0  0  0  0  0  0  0  0
   34.5974   39.3363   54.8013 C   0  0  0  0  0  0  0  0  0  0  0  0
   33.6021   37.5553   56.5659 C   0  0  0  0  0  0  0  0  0  0  0  0
   33.0918   36.6104   57.4425 C   0  0  0  0  0  0  0  0  0  0  0  0
   32.9467   35.2851   57.0350 N   0  0  0  0  0  0  0  0  0  0  0  0
   33.7853   34.7670   56.1159 C   0  0  0  0  0  0  0  0  0  0  0  0
   34.6661   35.4538   55.6433 O   0  0  0  0  0  0  0  0  0  0  0  0
   33.6285   33.3344   55.6753 C   0  0  0  0  0  0  0  0  0  0  0  0
   34.9010   32.5574   55.3325 C   0  0  0  0  0  0  0  0  0  0  0  0
   33.9536   33.0041   54.2173 C   0  0  0  0  0  0  0  0  0  0  0  0
   30.4356   33.1986   59.6822 H   0  0  0  0  0  0  0  0  0  0  0  0
   31.8100   33.5718   60.7500 H   0  0  0  0  0  0  0  0  0  0  0  0
   30.3036   34.5113   60.8771 H   0  0  0  0  0  0  0  0  0  0  0  0
   32.5883   38.6234   60.1421 H   0  0  0  0  0  0  0  0  0  0  0  0
   34.7726   41.9624   59.5156 H   0  0  0  0  0  0  0  0  0  0  0  0
   34.9458   40.3070   60.1466 H   0  0  0  0  0  0  0  0  0  0  0  0
   35.5909   40.7190   58.5396 H   0  0  0  0  0  0  0  0  0  0  0  0
   34.9835   40.1706   54.2156 H   0  0  0  0  0  0  0  0  0  0  0  0
   33.7141   38.9263   54.3113 H   0  0  0  0  0  0  0  0  0  0  0  0
   35.3614   38.5629   54.8794 H   0  0  0  0  0  0  0  0  0  0  0  0
   33.8876   37.2644   55.5658 H   0  0  0  0  0  0  0  0  0  0  0  0
   32.2423   34.7358   57.4131 H   0  0  0  0  0  0  0  0  0  0  0  0
   32.8139   32.7842   56.1464 H   0  0  0  0  0  0  0  0  0  0  0  0
   35.8517   33.0823   55.4257 H   0  0  0  0  0  0  0  0  0  0  0  0
   34.9240   31.4956   55.5782 H   0  0  0  0  0  0  0  0  0  0  0  0
   33.3533   32.2362   53.7292 H   0  0  0  0  0  0  0  0  0  0  0  0
   34.2811   33.8229   53.5767 H   0  0  0  0  0  0  0  0  0  0  0  0
  1  2  1  0  0  0  0
  1 21  1  0  0  0  0
  1 22  1  0  0  0  0
  1 23  1  0  0  0  0
  2  3  1  0  0  0  0
  3  4  2  0  0  0  0
  3  5  1  0  0  0  0
  5 14  2  0  0  0  0
  5  6  1  0  0  0  0
  6  7  2  0  0  0  0
  6 24  1  0  0  0  0
  7  8  1  0  0  0  0
  7 10  1  0  0  0  0
  8  9  1  0  0  0  0
  9 25  1  0  0  0  0
  9 26  1  0  0  0  0
  9 27  1  0  0  0  0
 10 11  1  0  0  0  0
 10 13  2  0  0  0  0
 11 12  1  0  0  0  0
 12 28  1  0  0  0  0
 12 29  1  0  0  0  0
 12 30  1  0  0  0  0
 13 14  1  0  0  0  0
 13 31  1  0  0  0  0
 14 15  1  0  0  0  0
 15 16  1  0  0  0  0
 15 32  1  0  0  0  0
 16 17  2  0  0  0  0
 16 18  1  0  0  0  0
 18 20  1  0  0  0  0
 18 19  1  0  0  0  0
 18 33  1  0  0  0  0
 19 20  1  0  0  0  0
 19 34  1  0  0  0  0
 19 35  1  0  0  0  0
 20 36  1  0  0  0  0
 20 37  1  0  0  0  0
M  END
$$$$
