ZINC000000030571      none
 OpenBabel11202420163D

 42 43  0  0  1  0  0  0  0  0999 V2000
   35.2674   40.9148   51.9811 C   0  0  0  0  0  0  0  0  0  0  0  0
   34.9974   39.4855   52.4554 C   0  0  0  0  0  0  0  0  0  0  0  0
   34.6007   39.5058   53.8521 O   0  0  0  0  0  0  0  0  0  0  0  0
   34.3248   38.3187   54.4269 C   0  0  0  0  0  0  0  0  0  0  0  0
   34.4133   37.2947   53.7789 O   0  0  0  0  0  0  0  0  0  0  0  0
   33.9153   38.2625   55.8424 C   0  0  0  0  0  0  0  0  0  0  0  0
   33.6282   37.0319   56.4405 C   0  0  0  0  0  0  0  0  0  0  0  0
   33.2459   36.9832   57.7619 C   0  0  0  0  0  0  0  0  0  0  0  0
   33.1450   38.1570   58.5024 C   0  0  0  0  0  0  0  0  0  0  0  0
   32.7574   38.1038   59.8405 N   0  0  0  0  0  0  0  0  0  0  0  0
   31.9341   37.1248   60.2652 C   0  0  0  0  0  0  0  0  0  0  0  0
   31.5304   36.2904   59.4834 O   0  0  0  0  0  0  0  0  0  0  0  0
   31.5153   37.0672   61.7117 C   0  0  1  0  0  0  0  0  0  0  0  0
   30.6013   37.6451   61.8486 H   0  0  0  0  0  0  0  0  0  0  0  0
   31.2635   35.6122   62.1122 C   0  0  0  0  0  0  0  0  0  0  0  0
   32.5516   37.6139   62.5298 O   0  0  0  0  0  0  0  0  0  0  0  0
   32.3317   37.6372   63.8706 C   0  0  0  0  0  0  0  0  0  0  0  0
   31.2518   38.3397   64.3856 C   0  0  0  0  0  0  0  0  0  0  0  0
   31.0307   38.3620   65.7490 C   0  0  0  0  0  0  0  0  0  0  0  0
   31.8846   37.6854   66.6003 C   0  0  0  0  0  0  0  0  0  0  0  0
   32.9647   36.9893   66.0900 C   0  0  0  0  0  0  0  0  0  0  0  0
   33.1867   36.9587   64.7268 C   0  0  0  0  0  0  0  0  0  0  0  0
   33.4243   39.3841   57.9089 C   0  0  0  0  0  0  0  0  0  0  0  0
   33.8127   39.4398   56.5894 C   0  0  0  0  0  0  0  0  0  0  0  0
   34.3622   41.5118   52.0930 H   0  0  0  0  0  0  0  0  0  0  0  0
   36.0669   41.3514   52.5795 H   0  0  0  0  0  0  0  0  0  0  0  0
   35.5652   40.8995   50.9326 H   0  0  0  0  0  0  0  0  0  0  0  0
   35.9025   38.8884   52.3435 H   0  0  0  0  0  0  0  0  0  0  0  0
   34.1979   39.0488   51.8569 H   0  0  0  0  0  0  0  0  0  0  0  0
   33.7061   36.1205   55.8663 H   0  0  0  0  0  0  0  0  0  0  0  0
   33.0237   36.0329   58.2245 H   0  0  0  0  0  0  0  0  0  0  0  0
   33.0803   38.7713   60.4659 H   0  0  0  0  0  0  0  0  0  0  0  0
   32.1776   35.0343   61.9752 H   0  0  0  0  0  0  0  0  0  0  0  0
   30.9607   35.5704   63.1584 H   0  0  0  0  0  0  0  0  0  0  0  0
   30.4731   35.1951   61.4882 H   0  0  0  0  0  0  0  0  0  0  0  0
   30.5849   38.8689   63.7211 H   0  0  0  0  0  0  0  0  0  0  0  0
   30.1902   38.9088   66.1504 H   0  0  0  0  0  0  0  0  0  0  0  0
   31.7102   37.7044   67.6659 H   0  0  0  0  0  0  0  0  0  0  0  0
   33.6331   36.4655   66.7574 H   0  0  0  0  0  0  0  0  0  0  0  0
   34.0283   36.4113   64.3284 H   0  0  0  0  0  0  0  0  0  0  0  0
   33.3403   40.2936   58.4853 H   0  0  0  0  0  0  0  0  0  0  0  0
   34.0334   40.3923   56.1306 H   0  0  0  0  0  0  0  0  0  0  0  0
  1  2  1  0  0  0  0
  1 25  1  0  0  0  0
  1 26  1  0  0  0  0
  1 27  1  0  0  0  0
  2  3  1  0  0  0  0
  2 28  1  0  0  0  0
  2 29  1  0  0  0  0
  3  4  1  0  0  0  0
  4  5  2  0  0  0  0
  4  6  1  0  0  0  0
  6 24  2  0  0  0  0
  6  7  1  0  0  0  0
  7  8  2  0  0  0  0
  7 30  1  0  0  0  0
  8  9  1  0  0  0  0
  8 31  1  0  0  0  0
  9 10  1  0  0  0  0
  9 23  2  0  0  0  0
 10 11  1  0  0  0  0
 10 32  1  0  0  0  0
 11 12  2  0  0  0  0
 11 13  1  0  0  0  0
 13 14  1  1  0  0  0
 13 15  1  0  0  0  0
 13 16  1  0  0  0  0
 15 33  1  0  0  0  0
 15 34  1  0  0  0  0
 15 35  1  0  0  0  0
 16 17  1  0  0  0  0
 17 22  2  0  0  0  0
 17 18  1  0  0  0  0
 18 19  2  0  0  0  0
 18 36  1  0  0  0  0
 19 20  1  0  0  0  0
 19 37  1  0  0  0  0
 20 21  2  0  0  0  0
 20 38  1  0  0  0  0
 21 22  1  0  0  0  0
 21 39  1  0  0  0  0
 22 40  1  0  0  0  0
 23 24  1  0  0  0  0
 23 41  1  0  0  0  0
 24 42  1  0  0  0  0
M  END
$$$$
