ZINC000000052956      none
 OpenBabel11202420153D

 34 36  0  0  0  0  0  0  0  0999 V2000
   29.9701   35.8547   61.9155 C   0  0  0  0  0  0  0  0  0  0  0  0
   31.3819   36.3700   61.8027 C   0  0  0  0  0  0  0  0  0  0  0  0
   32.0712   36.4746   62.7966 O   0  0  0  0  0  0  0  0  0  0  0  0
   31.9045   36.7322   60.5372 C   0  0  0  0  0  0  0  0  0  0  0  0
   32.3555   37.9613   60.2057 O   0  0  0  0  0  0  0  0  0  0  0  0
   32.7894   37.9869   58.9296 C   0  0  0  0  0  0  0  0  0  0  0  0
   33.3314   38.9906   58.1405 C   0  0  0  0  0  0  0  0  0  0  0  0
   33.5230   40.3728   58.7097 C   0  0  0  0  0  0  0  0  0  0  0  0
   33.6965   38.7268   56.8317 C   0  0  0  0  0  0  0  0  0  0  0  0
   34.2252   39.7029   56.0608 O   0  0  0  0  0  0  0  0  0  0  0  0
   34.5881   39.4742   54.7892 C   0  0  0  0  0  0  0  0  0  0  0  0
   35.0649   40.3848   54.1365 O   0  0  0  0  0  0  0  0  0  0  0  0
   34.4376   38.2054   54.1898 C   0  0  0  0  0  0  0  0  0  0  0  0
   33.9132   37.1787   54.9055 C   0  0  0  0  0  0  0  0  0  0  0  0
   33.7412   35.8142   54.2893 C   0  0  0  0  0  0  0  0  0  0  0  0
   33.5180   37.4331   56.2948 C   0  0  0  0  0  0  0  0  0  0  0  0
   32.9748   36.4175   57.0776 C   0  0  0  0  0  0  0  0  0  0  0  0
   32.6102   36.6920   58.3936 C   0  0  0  0  0  0  0  0  0  0  0  0
   32.0289   35.8931   59.4710 C   0  0  0  0  0  0  0  0  0  0  0  0
   31.6457   34.4368   59.4141 C   0  0  0  0  0  0  0  0  0  0  0  0
   29.5120   35.8311   60.9269 H   0  0  0  0  0  0  0  0  0  0  0  0
   29.9831   34.8483   62.3341 H   0  0  0  0  0  0  0  0  0  0  0  0
   29.3944   36.5120   62.5672 H   0  0  0  0  0  0  0  0  0  0  0  0
   32.6265   40.9667   58.5314 H   0  0  0  0  0  0  0  0  0  0  0  0
   33.7046   40.3021   59.7821 H   0  0  0  0  0  0  0  0  0  0  0  0
   34.3763   40.8494   58.2273 H   0  0  0  0  0  0  0  0  0  0  0  0
   34.7386   38.0522   53.1640 H   0  0  0  0  0  0  0  0  0  0  0  0
   34.6422   35.2240   54.4563 H   0  0  0  0  0  0  0  0  0  0  0  0
   32.8885   35.3135   54.7478 H   0  0  0  0  0  0  0  0  0  0  0  0
   33.5685   35.9185   53.2181 H   0  0  0  0  0  0  0  0  0  0  0  0
   32.8373   35.4276   56.6685 H   0  0  0  0  0  0  0  0  0  0  0  0
   32.4960   33.8253   59.7161 H   0  0  0  0  0  0  0  0  0  0  0  0
   30.8094   34.2545   60.0889 H   0  0  0  0  0  0  0  0  0  0  0  0
   31.3546   34.1770   58.3964 H   0  0  0  0  0  0  0  0  0  0  0  0
  1  2  1  0  0  0  0
  1 21  1  0  0  0  0
  1 22  1  0  0  0  0
  1 23  1  0  0  0  0
  2  3  2  0  0  0  0
  2  4  1  0  0  0  0
  4 19  2  0  0  0  0
  4  5  1  0  0  0  0
  5  6  1  0  0  0  0
  6 18  2  0  0  0  0
  6  7  1  0  0  0  0
  7  8  1  0  0  0  0
  7  9  2  0  0  0  0
  8 24  1  0  0  0  0
  8 25  1  0  0  0  0
  8 26  1  0  0  0  0
  9 16  1  0  0  0  0
  9 10  1  0  0  0  0
 10 11  1  0  0  0  0
 11 12  2  0  0  0  0
 11 13  1  0  0  0  0
 13 14  2  0  0  0  0
 13 27  1  0  0  0  0
 14 15  1  0  0  0  0
 14 16  1  0  0  0  0
 15 28  1  0  0  0  0
 15 29  1  0  0  0  0
 15 30  1  0  0  0  0
 16 17  2  0  0  0  0
 17 18  1  0  0  0  0
 17 31  1  0  0  0  0
 18 19  1  0  0  0  0
 19 20  1  0  0  0  0
 20 32  1  0  0  0  0
 20 33  1  0  0  0  0
 20 34  1  0  0  0  0
M  END
$$$$
