ZINC000000039079      none
 OpenBabel11202420153D

 46 48  0  0  1  0  0  0  0  0999 V2000
   32.5828   39.0841   67.1523 O   0  0  0  0  0  0  0  0  0  0  0  0
   31.3700   38.9978   67.1014 C   0  0  0  0  0  0  0  0  0  0  0  0
   30.7936   37.8745   66.6299 N   0  0  0  0  0  0  0  0  0  0  0  0
   31.6270   36.7574   66.1787 C   0  0  1  0  0  0  0  0  0  0  0  0
   30.9886   35.9436   65.8345 H   0  0  0  0  0  0  0  0  0  0  0  0
   32.5247   37.2221   65.0303 C   0  0  0  0  0  0  0  0  0  0  0  0
   31.7334   37.2352   63.7479 C   0  0  0  0  0  0  0  0  0  0  0  0
   31.6951   36.1086   62.9478 C   0  0  0  0  0  0  0  0  0  0  0  0
   30.9654   36.1189   61.7738 C   0  0  0  0  0  0  0  0  0  0  0  0
   30.2824   37.2595   61.3946 C   0  0  0  0  0  0  0  0  0  0  0  0
   30.3249   38.3878   62.1921 C   0  0  0  0  0  0  0  0  0  0  0  0
   31.0504   38.3757   63.3687 C   0  0  0  0  0  0  0  0  0  0  0  0
   32.4827   36.2753   67.3219 C   0  0  0  0  0  0  0  0  0  0  0  0
   33.6915   36.3011   67.2273 O   0  0  0  0  0  0  0  0  0  0  0  0
   31.9045   35.8158   68.4493 N   0  0  0  0  0  0  0  0  0  0  0  0
   30.4415   35.7783   68.5786 C   0  0  0  0  0  0  0  0  0  0  0  0
   30.0407   36.5167   69.8597 C   0  0  0  0  0  0  0  0  0  0  0  0
   30.7926   35.9129   71.0481 C   0  0  0  0  0  0  0  0  0  0  0  0
   32.2991   36.0859   70.8421 C   0  0  0  0  0  0  0  0  0  0  0  0
   32.7254   35.3426   69.5723 C   0  0  0  0  0  0  0  0  0  0  0  0
   30.5361   40.1155   67.5530 C   0  0  0  0  0  0  0  0  0  0  0  0
   31.0005   41.3034   68.0434 C   0  0  0  0  0  0  0  0  0  0  0  0
   29.9977   42.1764   68.3932 C   0  0  0  0  0  0  0  0  0  0  0  0
   28.7547   41.7213   68.1971 C   0  0  0  0  0  0  0  0  0  0  0  0
   28.7780   40.1455   67.5433 S   0  0  0  0  0  0  0  0  0  0  0  0
   29.8269   37.8056   66.5894 H   0  0  0  0  0  0  0  0  0  0  0  0
   32.8929   38.2263   65.2404 H   0  0  0  0  0  0  0  0  0  0  0  0
   33.3685   36.5395   64.9296 H   0  0  0  0  0  0  0  0  0  0  0  0
   32.2323   35.2189   63.2418 H   0  0  0  0  0  0  0  0  0  0  0  0
   30.9324   35.2375   61.1506 H   0  0  0  0  0  0  0  0  0  0  0  0
   29.7158   37.2691   60.4753 H   0  0  0  0  0  0  0  0  0  0  0  0
   29.7917   39.2790   61.8957 H   0  0  0  0  0  0  0  0  0  0  0  0
   31.0840   39.2573   63.9915 H   0  0  0  0  0  0  0  0  0  0  0  0
   30.1059   34.7427   68.6337 H   0  0  0  0  0  0  0  0  0  0  0  0
   29.9859   36.2670   67.7175 H   0  0  0  0  0  0  0  0  0  0  0  0
   28.9673   36.4140   70.0182 H   0  0  0  0  0  0  0  0  0  0  0  0
   30.2958   37.5724   69.7661 H   0  0  0  0  0  0  0  0  0  0  0  0
   30.4907   36.4202   71.9645 H   0  0  0  0  0  0  0  0  0  0  0  0
   30.5562   34.8516   71.1262 H   0  0  0  0  0  0  0  0  0  0  0  0
   32.5330   37.1455   70.7394 H   0  0  0  0  0  0  0  0  0  0  0  0
   32.8330   35.6765   71.6998 H   0  0  0  0  0  0  0  0  0  0  0  0
   33.7769   35.5439   69.3665 H   0  0  0  0  0  0  0  0  0  0  0  0
   32.5761   34.2716   69.7081 H   0  0  0  0  0  0  0  0  0  0  0  0
   32.0507   41.5335   68.1461 H   0  0  0  0  0  0  0  0  0  0  0  0
   30.1986   43.1579   68.7966 H   0  0  0  0  0  0  0  0  0  0  0  0
   27.8567   42.2791   68.4181 H   0  0  0  0  0  0  0  0  0  0  0  0
  1  2  2  0  0  0  0
  2  3  1  0  0  0  0
  2 21  1  0  0  0  0
  3  4  1  0  0  0  0
  3 26  1  0  0  0  0
  4  5  1  6  0  0  0
  4  6  1  0  0  0  0
  4 13  1  0  0  0  0
  6  7  1  0  0  0  0
  6 27  1  0  0  0  0
  6 28  1  0  0  0  0
  7 12  2  0  0  0  0
  7  8  1  0  0  0  0
  8  9  2  0  0  0  0
  8 29  1  0  0  0  0
  9 10  1  0  0  0  0
  9 30  1  0  0  0  0
 10 11  2  0  0  0  0
 10 31  1  0  0  0  0
 11 12  1  0  0  0  0
 11 32  1  0  0  0  0
 12 33  1  0  0  0  0
 13 14  2  0  0  0  0
 13 15  1  0  0  0  0
 15 20  1  0  0  0  0
 15 16  1  0  0  0  0
 16 17  1  0  0  0  0
 16 34  1  0  0  0  0
 16 35  1  0  0  0  0
 17 18  1  0  0  0  0
 17 36  1  0  0  0  0
 17 37  1  0  0  0  0
 18 19  1  0  0  0  0
 18 38  1  0  0  0  0
 18 39  1  0  0  0  0
 19 20  1  0  0  0  0
 19 40  1  0  0  0  0
 19 41  1  0  0  0  0
 20 42  1  0  0  0  0
 20 43  1  0  0  0  0
 21 25  1  0  0  0  0
 21 22  2  0  0  0  0
 22 23  1  0  0  0  0
 22 44  1  0  0  0  0
 23 24  2  0  0  0  0
 23 45  1  0  0  0  0
 24 25  1  0  0  0  0
 24 46  1  0  0  0  0
M  END
$$$$
