ZINC000000001280      none
 OpenBabel11202420153D

 19 19  0  0  0  0  0  0  0  0999 V2000
   34.0370   39.3467   56.0796 C   0  0  0  0  0  0  0  0  0  0  0  0
   33.4402   38.5690   57.2243 C   0  0  0  0  0  0  0  0  0  0  0  0
   33.0312   39.2283   58.3679 C   0  0  0  0  0  0  0  0  0  0  0  0
   32.4870   38.5122   59.4230 C   0  0  0  0  0  0  0  0  0  0  0  0
   32.0881   39.1587   60.5505 O   0  0  0  0  0  0  0  0  0  0  0  0
   32.3445   37.1346   59.3243 C   0  0  0  0  0  0  0  0  0  0  0  0
   31.6578   36.2355   60.6411 Cl  0  0  0  0  0  0  0  0  0  0  0  0
   32.7502   36.4797   58.1768 C   0  0  0  0  0  0  0  0  0  0  0  0
   32.5966   34.9845   58.0686 C   0  0  0  0  0  0  0  0  0  0  0  0
   33.2980   37.1964   57.1273 C   0  0  0  0  0  0  0  0  0  0  0  0
   33.8071   36.3719   55.6870 Cl  0  0  0  0  0  0  0  0  0  0  0  0
   33.2440   39.6597   55.4004 H   0  0  0  0  0  0  0  0  0  0  0  0
   34.5517   40.2260   56.4671 H   0  0  0  0  0  0  0  0  0  0  0  0
   34.7471   38.7169   55.5437 H   0  0  0  0  0  0  0  0  0  0  0  0
   33.1391   40.3004   58.4412 H   0  0  0  0  0  0  0  0  0  0  0  0
   32.2234   40.1158   60.5237 H   0  0  0  0  0  0  0  0  0  0  0  0
   31.6226   34.7495   57.6396 H   0  0  0  0  0  0  0  0  0  0  0  0
   33.3821   34.5839   57.4278 H   0  0  0  0  0  0  0  0  0  0  0  0
   32.6740   34.5386   59.0603 H   0  0  0  0  0  0  0  0  0  0  0  0
  1  2  1  0  0  0  0
  1 12  1  0  0  0  0
  1 13  1  0  0  0  0
  1 14  1  0  0  0  0
  2 10  2  0  0  0  0
  2  3  1  0  0  0  0
  3  4  2  0  0  0  0
  3 15  1  0  0  0  0
  4  5  1  0  0  0  0
  4  6  1  0  0  0  0
  5 16  1  0  0  0  0
  6  7  1  0  0  0  0
  6  8  2  0  0  0  0
  8  9  1  0  0  0  0
  8 10  1  0  0  0  0
  9 17  1  0  0  0  0
  9 18  1  0  0  0  0
  9 19  1  0  0  0  0
 10 11  1  0  0  0  0
M  END
$$$$
