ZINC000000015436      none
 OpenBabel11202420153D

 27 29  0  0  0  0  0  0  0  0999 V2000
   35.9322   40.1016   51.3509 C   0  0  0  0  0  0  0  0  0  0  0  0
   35.4560   39.3257   52.0920 C   0  0  0  0  0  0  0  0  0  0  0  0
   34.8751   38.3792   52.9961 C   0  0  0  0  0  0  0  0  0  0  0  0
   34.6524   37.0579   52.5760 C   0  0  0  0  0  0  0  0  0  0  0  0
   34.1018   36.1432   53.4175 C   0  0  0  0  0  0  0  0  0  0  0  0
   33.7472   36.5127   54.7256 C   0  0  0  0  0  0  0  0  0  0  0  0
   33.1740   35.5778   55.6121 C   0  0  0  0  0  0  0  0  0  0  0  0
   32.8277   35.9231   56.8739 C   0  0  0  0  0  0  0  0  0  0  0  0
   33.0243   37.2302   57.3584 C   0  0  0  0  0  0  0  0  0  0  0  0
   32.6777   37.5670   58.6159 N   0  0  0  0  0  0  0  0  0  0  0  0
   32.8613   38.7857   59.0667 C   0  0  0  0  0  0  0  0  0  0  0  0
   32.4913   39.0774   60.3547 N   0  0  0  0  0  0  0  0  0  0  0  0
   33.4067   39.7724   58.2994 N   0  0  0  0  0  0  0  0  0  0  0  0
   33.5258   40.6610   58.6695 H   0  0  0  0  0  0  0  0  0  0  0  0
   33.7820   39.5189   57.0255 C   0  0  0  0  0  0  0  0  0  0  0  0
   34.2700   40.3928   56.3310 O   0  0  0  0  0  0  0  0  0  0  0  0
   33.5875   38.2096   56.5187 C   0  0  0  0  0  0  0  0  0  0  0  0
   33.9684   37.8440   55.1579 C   0  0  0  0  0  0  0  0  0  0  0  0
   34.5347   38.7725   54.2827 C   0  0  0  0  0  0  0  0  0  0  0  0
   36.3582   40.7957   50.6880 H   0  0  0  0  0  0  0  0  0  0  0  0
   34.9216   36.7649   51.5720 H   0  0  0  0  0  0  0  0  0  0  0  0
   33.9367   35.1307   53.0799 H   0  0  0  0  0  0  0  0  0  0  0  0
   33.0075   34.5647   55.2769 H   0  0  0  0  0  0  0  0  0  0  0  0
   32.3911   35.1793   57.5240 H   0  0  0  0  0  0  0  0  0  0  0  0
   32.1014   38.3884   60.9152 H   0  0  0  0  0  0  0  0  0  0  0  0
   32.6195   39.9728   60.7051 H   0  0  0  0  0  0  0  0  0  0  0  0
   34.7062   39.7891   54.6044 H   0  0  0  0  0  0  0  0  0  0  0  0
  1  2  3  0  0  0  0
  1 20  1  0  0  0  0
  2  3  1  0  0  0  0
  3 19  2  0  0  0  0
  3  4  1  0  0  0  0
  4  5  2  0  0  0  0
  4 21  1  0  0  0  0
  5  6  1  0  0  0  0
  5 22  1  0  0  0  0
  6 18  2  0  0  0  0
  6  7  1  0  0  0  0
  7  8  2  0  0  0  0
  7 23  1  0  0  0  0
  8  9  1  0  0  0  0
  8 24  1  0  0  0  0
  9 17  2  0  0  0  0
  9 10  1  0  0  0  0
 10 11  2  0  0  0  0
 11 12  1  0  0  0  0
 11 13  1  0  0  0  0
 12 25  1  0  0  0  0
 12 26  1  0  0  0  0
 13 14  1  0  0  0  0
 13 15  1  0  0  0  0
 15 16  2  0  0  0  0
 15 17  1  0  0  0  0
 17 18  1  0  0  0  0
 18 19  1  0  0  0  0
 19 27  1  0  0  0  0
M  END
$$$$
