ZINC000000032974      none
 OpenBabel11202420153D

 40 41  0  0  0  0  0  0  0  0999 V2000
   32.3410   35.9972   51.4413 C   0  0  0  0  0  0  0  0  0  0  0  0
   32.2242   35.2276   52.4949 C   0  0  0  0  0  0  0  0  0  0  0  0
   32.4013   35.8071   53.8747 C   0  0  0  0  0  0  0  0  0  0  0  0
   33.5109   35.1298   54.5501 N   0  0  0  0  0  0  0  0  0  0  0  0
   34.6272   34.5935   53.7673 C   0  0  0  0  0  0  0  0  0  0  0  0
   34.7280   33.1064   53.9898 C   0  0  0  0  0  0  0  0  0  0  0  0
   34.0725   32.2818   53.2113 C   0  0  0  0  0  0  0  0  0  0  0  0
   33.5034   34.9703   56.1984 S   0  0  0  0  0  0  0  0  0  0  0  0
   34.7634   34.4178   56.5539 O   0  0  0  0  0  0  0  0  0  0  0  0
   32.2645   34.3623   56.5370 O   0  0  0  0  0  0  0  0  0  0  0  0
   33.4626   36.5950   56.8793 C   0  0  0  0  0  0  0  0  0  0  0  0
   34.0331   37.6328   56.2066 C   0  0  0  0  0  0  0  0  0  0  0  0
   34.0165   38.9218   56.7320 C   0  0  0  0  0  0  0  0  0  0  0  0
   33.4267   39.1832   57.9361 C   0  0  0  0  0  0  0  0  0  0  0  0
   33.4189   40.4477   58.4326 O   0  0  0  0  0  0  0  0  0  0  0  0
   34.5205   40.8262   59.2605 C   0  0  0  0  0  0  0  0  0  0  0  0
   32.8253   38.1332   58.6608 C   0  0  0  0  0  0  0  0  0  0  0  0
   32.2400   38.3563   59.8409 N   0  0  0  0  0  0  0  0  0  0  0  0
   31.6793   37.3842   60.5182 C   0  0  0  0  0  0  0  0  0  0  0  0
   31.6656   36.0737   60.0446 C   0  0  0  0  0  0  0  0  0  0  0  0
   32.2463   35.7768   58.8448 C   0  0  0  0  0  0  0  0  0  0  0  0
   32.8469   36.8240   58.1204 C   0  0  0  0  0  0  0  0  0  0  0  0
   32.2141   35.5819   50.4525 H   0  0  0  0  0  0  0  0  0  0  0  0
   32.5642   37.0471   51.5614 H   0  0  0  0  0  0  0  0  0  0  0  0
   32.0011   34.1778   52.3747 H   0  0  0  0  0  0  0  0  0  0  0  0
   31.4855   35.6651   54.4487 H   0  0  0  0  0  0  0  0  0  0  0  0
   32.6193   36.8722   53.7963 H   0  0  0  0  0  0  0  0  0  0  0  0
   34.4574   34.7919   52.7092 H   0  0  0  0  0  0  0  0  0  0  0  0
   35.5546   35.0718   54.0824 H   0  0  0  0  0  0  0  0  0  0  0  0
   35.3409   32.7206   54.7911 H   0  0  0  0  0  0  0  0  0  0  0  0
   34.1448   31.2161   53.3706 H   0  0  0  0  0  0  0  0  0  0  0  0
   33.4597   32.6676   52.4101 H   0  0  0  0  0  0  0  0  0  0  0  0
   34.5059   37.4532   55.2524 H   0  0  0  0  0  0  0  0  0  0  0  0
   34.4762   39.7275   56.1791 H   0  0  0  0  0  0  0  0  0  0  0  0
   35.4475   40.7397   58.6936 H   0  0  0  0  0  0  0  0  0  0  0  0
   34.3905   41.8573   59.5892 H   0  0  0  0  0  0  0  0  0  0  0  0
   34.5637   40.1704   60.1300 H   0  0  0  0  0  0  0  0  0  0  0  0
   31.2162   37.6045   61.4687 H   0  0  0  0  0  0  0  0  0  0  0  0
   31.1954   35.2939   60.6253 H   0  0  0  0  0  0  0  0  0  0  0  0
   32.2449   34.7667   58.4622 H   0  0  0  0  0  0  0  0  0  0  0  0
  1  2  2  0  0  0  0
  1 23  1  0  0  0  0
  1 24  1  0  0  0  0
  2  3  1  0  0  0  0
  2 25  1  0  0  0  0
  3  4  1  0  0  0  0
  3 26  1  0  0  0  0
  3 27  1  0  0  0  0
  4  5  1  0  0  0  0
  4  8  1  0  0  0  0
  5  6  1  0  0  0  0
  5 28  1  0  0  0  0
  5 29  1  0  0  0  0
  6  7  2  0  0  0  0
  6 30  1  0  0  0  0
  7 31  1  0  0  0  0
  7 32  1  0  0  0  0
  8  9  2  0  0  0  0
  8 10  2  0  0  0  0
  8 11  1  0  0  0  0
 11 22  2  0  0  0  0
 11 12  1  0  0  0  0
 12 13  2  0  0  0  0
 12 33  1  0  0  0  0
 13 14  1  0  0  0  0
 13 34  1  0  0  0  0
 14 15  1  0  0  0  0
 14 17  2  0  0  0  0
 15 16  1  0  0  0  0
 16 35  1  0  0  0  0
 16 36  1  0  0  0  0
 16 37  1  0  0  0  0
 17 22  1  0  0  0  0
 17 18  1  0  0  0  0
 18 19  2  0  0  0  0
 19 20  1  0  0  0  0
 19 38  1  0  0  0  0
 20 21  2  0  0  0  0
 20 39  1  0  0  0  0
 21 22  1  0  0  0  0
 21 40  1  0  0  0  0
M  END
$$$$
