ZINC000000003586      none
 OpenBabel11202420153D

 37 40  0  0  0  0  0  0  0  0999 V2000
   33.4478   33.8234   52.1457 F   0  0  0  0  0  0  0  0  0  0  0  0
   33.2864   34.3151   53.3935 C   0  0  0  0  0  0  0  0  0  0  0  0
   32.6833   35.5495   53.5774 C   0  0  0  0  0  0  0  0  0  0  0  0
   32.5170   36.0553   54.8501 C   0  0  0  0  0  0  0  0  0  0  0  0
   32.9561   35.3230   55.9517 C   0  0  0  0  0  0  0  0  0  0  0  0
   32.7795   35.8628   57.3219 C   0  0  0  0  0  0  0  0  0  0  0  0
   32.6163   34.9878   58.3908 C   0  0  0  0  0  0  0  0  0  0  0  0
   32.4456   35.5129   59.6729 C   0  0  0  0  0  0  0  0  0  0  0  0
   32.2626   34.6200   60.8424 C   0  0  0  0  0  0  0  0  0  0  0  0
   32.7723   33.3637   60.9854 C   0  0  0  0  0  0  0  0  0  0  0  0
   32.3781   32.8919   62.1851 N   0  0  0  0  0  0  0  0  0  0  0  0
   32.5952   32.0202   62.5508 H   0  0  0  0  0  0  0  0  0  0  0  0
   31.6018   33.8728   62.8138 N   0  0  0  0  0  0  0  0  0  0  0  0
   31.5250   34.9162   62.0170 C   0  0  0  0  0  0  0  0  0  0  0  0
   30.7965   36.1767   62.2962 C   0  0  0  0  0  0  0  0  0  0  0  0
   29.4626   36.3037   61.9128 C   0  0  0  0  0  0  0  0  0  0  0  0
   28.7943   37.4844   62.1854 C   0  0  0  0  0  0  0  0  0  0  0  0
   29.4856   38.5050   62.8234 C   0  0  0  0  0  0  0  0  0  0  0  0
   30.8098   38.3132   63.1709 C   0  0  0  0  0  0  0  0  0  0  0  0
   31.4213   37.1768   62.9045 N   0  0  0  0  0  0  0  0  0  0  0  0
   32.4574   36.9039   59.8266 C   0  0  0  0  0  0  0  0  0  0  0  0
   32.6305   37.7029   58.7155 C   0  0  0  0  0  0  0  0  0  0  0  0
   32.7838   37.1757   57.5167 N   0  0  0  0  0  0  0  0  0  0  0  0
   33.5669   34.0847   55.7616 C   0  0  0  0  0  0  0  0  0  0  0  0
   33.7247   33.5844   54.4856 C   0  0  0  0  0  0  0  0  0  0  0  0
   32.3433   36.1162   52.7233 H   0  0  0  0  0  0  0  0  0  0  0  0
   32.0469   37.0171   54.9925 H   0  0  0  0  0  0  0  0  0  0  0  0
   32.6178   33.9197   58.2310 H   0  0  0  0  0  0  0  0  0  0  0  0
   33.3801   32.8380   60.2638 H   0  0  0  0  0  0  0  0  0  0  0  0
   28.9564   35.4907   61.4135 H   0  0  0  0  0  0  0  0  0  0  0  0
   27.7592   37.6105   61.9040 H   0  0  0  0  0  0  0  0  0  0  0  0
   28.9936   39.4404   63.0459 H   0  0  0  0  0  0  0  0  0  0  0  0
   31.3504   39.1056   63.6670 H   0  0  0  0  0  0  0  0  0  0  0  0
   32.3320   37.3465   60.8037 H   0  0  0  0  0  0  0  0  0  0  0  0
   32.6403   38.7768   58.8293 H   0  0  0  0  0  0  0  0  0  0  0  0
   33.9130   33.5160   56.6120 H   0  0  0  0  0  0  0  0  0  0  0  0
   34.1944   32.6231   54.3376 H   0  0  0  0  0  0  0  0  0  0  0  0
  1  2  1  0  0  0  0
  2 25  2  0  0  0  0
  2  3  1  0  0  0  0
  3  4  2  0  0  0  0
  3 26  1  0  0  0  0
  4  5  1  0  0  0  0
  4 27  1  0  0  0  0
  5  6  1  0  0  0  0
  5 24  2  0  0  0  0
  6 23  2  0  0  0  0
  6  7  1  0  0  0  0
  7  8  2  0  0  0  0
  7 28  1  0  0  0  0
  8  9  1  0  0  0  0
  8 21  1  0  0  0  0
  9 14  1  0  0  0  0
  9 10  2  0  0  0  0
 10 11  1  0  0  0  0
 10 29  1  0  0  0  0
 11 12  1  0  0  0  0
 11 13  1  0  0  0  0
 13 14  2  0  0  0  0
 14 15  1  0  0  0  0
 15 20  2  0  0  0  0
 15 16  1  0  0  0  0
 16 17  2  0  0  0  0
 16 30  1  0  0  0  0
 17 18  1  0  0  0  0
 17 31  1  0  0  0  0
 18 19  2  0  0  0  0
 18 32  1  0  0  0  0
 19 20  1  0  0  0  0
 19 33  1  0  0  0  0
 21 22  2  0  0  0  0
 21 34  1  0  0  0  0
 22 23  1  0  0  0  0
 22 35  1  0  0  0  0
 24 25  1  0  0  0  0
 24 36  1  0  0  0  0
 25 37  1  0  0  0  0
M  END
$$$$
