ZINC000000001350      none
 OpenBabel11202420153D

 25 24  0  0  0  0  0  0  0  0999 V2000
   30.1959   38.9819   63.6063 C   0  0  0  0  0  0  0  0  0  0  0  0
   30.6605   37.5248   63.6466 C   0  0  0  0  0  0  0  0  0  0  0  0
   30.3504   36.8534   62.3072 C   0  0  0  0  0  0  0  0  0  0  0  0
   28.8429   36.9010   62.0498 C   0  0  0  0  0  0  0  0  0  0  0  0
   31.0830   37.5913   61.1850 C   0  0  0  0  0  0  0  0  0  0  0  0
   30.7728   36.9199   59.8456 C   0  0  0  0  0  0  0  0  0  0  0  0
   30.7913   35.4705   62.3455 O   0  0  0  0  0  0  0  0  0  0  0  0
   32.1018   35.2526   62.5645 C   0  0  0  0  0  0  0  0  0  0  0  0
   32.5767   33.9921   62.6120 N   0  0  0  0  0  0  0  0  0  0  0  0
   32.8563   36.1923   62.7194 O   0  0  0  0  0  0  0  0  0  0  0  0
   29.1450   39.0204   63.3195 H   0  0  0  0  0  0  0  0  0  0  0  0
   30.3202   39.4304   64.5919 H   0  0  0  0  0  0  0  0  0  0  0  0
   30.7915   39.5333   62.8786 H   0  0  0  0  0  0  0  0  0  0  0  0
   30.1386   36.9990   64.4462 H   0  0  0  0  0  0  0  0  0  0  0  0
   31.7345   37.4908   63.8299 H   0  0  0  0  0  0  0  0  0  0  0  0
   28.3210   36.3753   62.8494 H   0  0  0  0  0  0  0  0  0  0  0  0
   28.5119   37.9391   62.0211 H   0  0  0  0  0  0  0  0  0  0  0  0
   28.6219   36.4226   61.0957 H   0  0  0  0  0  0  0  0  0  0  0  0
   30.7520   38.6295   61.1562 H   0  0  0  0  0  0  0  0  0  0  0  0
   32.1569   37.5574   61.3683 H   0  0  0  0  0  0  0  0  0  0  0  0
   31.1934   35.9143   59.8373 H   0  0  0  0  0  0  0  0  0  0  0  0
   29.6930   36.8631   59.7091 H   0  0  0  0  0  0  0  0  0  0  0  0
   31.2113   37.5038   59.0364 H   0  0  0  0  0  0  0  0  0  0  0  0
   33.5209   33.8352   62.7698 H   0  0  0  0  0  0  0  0  0  0  0  0
   31.9736   33.2418   62.4923 H   0  0  0  0  0  0  0  0  0  0  0  0
  1  2  1  0  0  0  0
  1 11  1  0  0  0  0
  1 12  1  0  0  0  0
  1 13  1  0  0  0  0
  2  3  1  0  0  0  0
  2 14  1  0  0  0  0
  2 15  1  0  0  0  0
  3  4  1  0  0  0  0
  3  5  1  0  0  0  0
  3  7  1  0  0  0  0
  4 16  1  0  0  0  0
  4 17  1  0  0  0  0
  4 18  1  0  0  0  0
  5  6  1  0  0  0  0
  5 19  1  0  0  0  0
  5 20  1  0  0  0  0
  6 21  1  0  0  0  0
  6 22  1  0  0  0  0
  6 23  1  0  0  0  0
  7  8  1  0  0  0  0
  8  9  1  0  0  0  0
  8 10  2  0  0  0  0
  9 24  1  0  0  0  0
  9 25  1  0  0  0  0
M  END
$$$$
