ZINC000000002603      none
 OpenBabel11202420153D

 30 31  0  0  0  0  0  0  0  0999 V2000
   33.4767   36.6360   56.1692 C   0  0  0  0  0  0  0  0  0  0  0  0
   32.8772   35.8167   57.1748 O   0  0  0  0  0  0  0  0  0  0  0  0
   32.5186   36.4262   58.3330 C   0  0  0  0  0  0  0  0  0  0  0  0
   31.9300   35.6864   59.3523 C   0  0  0  0  0  0  0  0  0  0  0  0
   31.5643   36.3010   60.5288 C   0  0  0  0  0  0  0  0  0  0  0  0
   31.7855   37.6709   60.6976 C   0  0  0  0  0  0  0  0  0  0  0  0
   31.3947   38.3339   61.9568 C   0  0  0  0  0  0  0  0  0  0  0  0
   30.5862   39.2429   61.9402 O   0  0  0  0  0  0  0  0  0  0  0  0
   31.9834   37.8951   63.2338 C   0  0  0  0  0  0  0  0  0  0  0  0
   32.8928   36.8937   63.4231 C   0  0  0  0  0  0  0  0  0  0  0  0
   33.1642   36.8127   64.7292 O   0  0  0  0  0  0  0  0  0  0  0  0
   32.4665   37.7272   65.4213 C   0  0  0  0  0  0  0  0  0  0  0  0
   32.5339   37.9563   67.1670 S   0  0  0  0  0  0  0  0  0  0  0  0
   33.7325   39.0578   67.4709 N   0  0  0  0  0  0  0  0  0  0  0  0
   31.3121   38.5803   67.5373 O   0  0  0  0  0  0  0  0  0  0  0  0
   32.9743   36.7223   67.7170 O   0  0  0  0  0  0  0  0  0  0  0  0
   31.7103   38.4394   64.5723 C   0  0  0  0  0  0  0  0  0  0  0  0
   32.3729   38.4123   59.6681 C   0  0  0  0  0  0  0  0  0  0  0  0
   32.7405   37.7888   58.4968 C   0  0  0  0  0  0  0  0  0  0  0  0
   33.7142   36.0261   55.2976 H   0  0  0  0  0  0  0  0  0  0  0  0
   32.7820   37.4253   55.8818 H   0  0  0  0  0  0  0  0  0  0  0  0
   34.3910   37.0816   56.5610 H   0  0  0  0  0  0  0  0  0  0  0  0
   31.7591   34.6281   59.2209 H   0  0  0  0  0  0  0  0  0  0  0  0
   31.1067   35.7256   61.3200 H   0  0  0  0  0  0  0  0  0  0  0  0
   33.3192   36.2727   62.6494 H   0  0  0  0  0  0  0  0  0  0  0  0
   33.6700   39.6418   68.2430 H   0  0  0  0  0  0  0  0  0  0  0  0
   34.4968   39.1192   66.8770 H   0  0  0  0  0  0  0  0  0  0  0  0
   31.0383   39.2473   64.8210 H   0  0  0  0  0  0  0  0  0  0  0  0
   32.5419   39.4716   59.7930 H   0  0  0  0  0  0  0  0  0  0  0  0
   33.1980   38.3599   57.7026 H   0  0  0  0  0  0  0  0  0  0  0  0
  1  2  1  0  0  0  0
  1 20  1  0  0  0  0
  1 21  1  0  0  0  0
  1 22  1  0  0  0  0
  2  3  1  0  0  0  0
  3 19  2  0  0  0  0
  3  4  1  0  0  0  0
  4  5  2  0  0  0  0
  4 23  1  0  0  0  0
  5  6  1  0  0  0  0
  5 24  1  0  0  0  0
  6  7  1  0  0  0  0
  6 18  2  0  0  0  0
  7  8  2  0  0  0  0
  7  9  1  0  0  0  0
  9 17  1  0  0  0  0
  9 10  2  0  0  0  0
 10 11  1  0  0  0  0
 10 25  1  0  0  0  0
 11 12  1  0  0  0  0
 12 13  1  0  0  0  0
 12 17  2  0  0  0  0
 13 14  1  0  0  0  0
 13 15  2  0  0  0  0
 13 16  2  0  0  0  0
 14 26  1  0  0  0  0
 14 27  1  0  0  0  0
 17 28  1  0  0  0  0
 18 19  1  0  0  0  0
 18 29  1  0  0  0  0
 19 30  1  0  0  0  0
M  END
$$$$
