ZINC000000055372      none
 OpenBabel11202420153D

 44 46  0  0  0  0  0  0  0  0999 V2000
   31.6970   33.7241   61.2551 C   0  0  0  0  0  0  0  0  0  0  0  0
   31.5181   35.1914   61.5485 C   0  0  0  0  0  0  0  0  0  0  0  0
   30.9112   35.5792   62.6631 C   0  0  0  0  0  0  0  0  0  0  0  0
   30.7130   37.0389   62.9741 C   0  0  0  0  0  0  0  0  0  0  0  0
   29.3544   37.4928   62.4365 C   0  0  0  0  0  0  0  0  0  0  0  0
   30.7545   37.2456   64.4894 C   0  0  0  0  0  0  0  0  0  0  0  0
   31.7762   37.8341   62.3461 N   0  0  0  0  0  0  0  0  0  0  0  0
   32.1404   37.5329   61.0303 C   0  0  0  0  0  0  0  0  0  0  0  0
   32.6141   38.5032   60.1671 C   0  0  0  0  0  0  0  0  0  0  0  0
   32.9589   38.1607   58.8722 C   0  0  0  0  0  0  0  0  0  0  0  0
   32.8316   36.8490   58.4342 C   0  0  0  0  0  0  0  0  0  0  0  0
   33.1724   36.5260   57.1578 O   0  0  0  0  0  0  0  0  0  0  0  0
   33.0239   37.4818   56.2269 C   0  0  0  0  0  0  0  0  0  0  0  0
   32.1622   38.3192   56.3531 O   0  0  0  0  0  0  0  0  0  0  0  0
   33.9321   37.5102   55.0247 C   0  0  0  0  0  0  0  0  0  0  0  0
   33.7842   36.2242   54.2530 C   0  0  0  0  0  0  0  0  0  0  0  0
   34.5970   35.1451   54.5464 C   0  0  0  0  0  0  0  0  0  0  0  0
   34.4584   33.9636   53.8432 C   0  0  0  0  0  0  0  0  0  0  0  0
   33.5129   33.8646   52.8366 C   0  0  0  0  0  0  0  0  0  0  0  0
   33.3809   32.7119   52.1441 F   0  0  0  0  0  0  0  0  0  0  0  0
   32.7031   34.9478   52.5398 C   0  0  0  0  0  0  0  0  0  0  0  0
   32.8394   36.1263   53.2484 C   0  0  0  0  0  0  0  0  0  0  0  0
   32.3596   35.8674   59.2908 C   0  0  0  0  0  0  0  0  0  0  0  0
   32.0126   36.2042   60.5949 C   0  0  0  0  0  0  0  0  0  0  0  0
   31.2675   33.1364   62.0664 H   0  0  0  0  0  0  0  0  0  0  0  0
   31.1933   33.4764   60.3208 H   0  0  0  0  0  0  0  0  0  0  0  0
   32.7596   33.4984   61.1660 H   0  0  0  0  0  0  0  0  0  0  0  0
   30.5573   34.8351   63.3612 H   0  0  0  0  0  0  0  0  0  0  0  0
   28.5637   36.9094   62.9083 H   0  0  0  0  0  0  0  0  0  0  0  0
   29.2095   38.5496   62.6610 H   0  0  0  0  0  0  0  0  0  0  0  0
   29.3220   37.3428   61.3573 H   0  0  0  0  0  0  0  0  0  0  0  0
   31.7207   36.9193   64.8743 H   0  0  0  0  0  0  0  0  0  0  0  0
   30.6111   38.3021   64.7161 H   0  0  0  0  0  0  0  0  0  0  0  0
   29.9613   36.6626   64.9575 H   0  0  0  0  0  0  0  0  0  0  0  0
   32.2149   38.5499   62.8321 H   0  0  0  0  0  0  0  0  0  0  0  0
   32.7146   39.5247   60.5027 H   0  0  0  0  0  0  0  0  0  0  0  0
   33.3293   38.9182   58.1973 H   0  0  0  0  0  0  0  0  0  0  0  0
   33.6623   38.3507   54.3852 H   0  0  0  0  0  0  0  0  0  0  0  0
   34.9658   37.6202   55.3526 H   0  0  0  0  0  0  0  0  0  0  0  0
   35.3379   35.2243   55.3280 H   0  0  0  0  0  0  0  0  0  0  0  0
   35.0908   33.1193   54.0753 H   0  0  0  0  0  0  0  0  0  0  0  0
   31.9654   34.8717   51.7546 H   0  0  0  0  0  0  0  0  0  0  0  0
   32.2078   36.9713   53.0172 H   0  0  0  0  0  0  0  0  0  0  0  0
   32.2622   34.8478   58.9484 H   0  0  0  0  0  0  0  0  0  0  0  0
  1  2  1  0  0  0  0
  1 25  1  0  0  0  0
  1 26  1  0  0  0  0
  1 27  1  0  0  0  0
  2 24  1  0  0  0  0
  2  3  2  0  0  0  0
  3  4  1  0  0  0  0
  3 28  1  0  0  0  0
  4  5  1  0  0  0  0
  4  6  1  0  0  0  0
  4  7  1  0  0  0  0
  5 29  1  0  0  0  0
  5 30  1  0  0  0  0
  5 31  1  0  0  0  0
  6 32  1  0  0  0  0
  6 33  1  0  0  0  0
  6 34  1  0  0  0  0
  7  8  1  0  0  0  0
  7 35  1  0  0  0  0
  8 24  2  0  0  0  0
  8  9  1  0  0  0  0
  9 10  2  0  0  0  0
  9 36  1  0  0  0  0
 10 11  1  0  0  0  0
 10 37  1  0  0  0  0
 11 12  1  0  0  0  0
 11 23  2  0  0  0  0
 12 13  1  0  0  0  0
 13 14  2  0  0  0  0
 13 15  1  0  0  0  0
 15 16  1  0  0  0  0
 15 38  1  0  0  0  0
 15 39  1  0  0  0  0
 16 22  2  0  0  0  0
 16 17  1  0  0  0  0
 17 18  2  0  0  0  0
 17 40  1  0  0  0  0
 18 19  1  0  0  0  0
 18 41  1  0  0  0  0
 19 20  1  0  0  0  0
 19 21  2  0  0  0  0
 21 22  1  0  0  0  0
 21 42  1  0  0  0  0
 22 43  1  0  0  0  0
 23 24  1  0  0  0  0
 23 44  1  0  0  0  0
M  END
$$$$
