ZINC000000033236      none
 OpenBabel11202420153D

 24 25  0  0  0  0  0  0  0  0999 V2000
   33.9767   38.1331   55.1767 C   0  0  0  0  0  0  0  0  0  0  0  0
   33.6069   38.6450   56.5450 C   0  0  0  0  0  0  0  0  0  0  0  0
   33.9378   39.7925   57.0465 N   0  0  0  0  0  0  0  0  0  0  0  0
   33.5283   40.0373   58.2154 N   0  0  0  0  0  0  0  0  0  0  0  0
   32.8173   39.1263   58.8084 C   0  0  0  0  0  0  0  0  0  0  0  0
   32.2842   39.2203   60.0895 N   0  0  0  0  0  0  0  0  0  0  0  0
   31.5606   38.2017   60.5948 C   0  0  0  0  0  0  0  0  0  0  0  0
   31.3743   37.2030   59.9322 O   0  0  0  0  0  0  0  0  0  0  0  0
   30.9829   38.3037   61.9829 C   0  0  0  0  0  0  0  0  0  0  0  0
   31.5170   37.2226   62.8148 N   0  0  0  0  0  0  0  0  0  0  0  0
   30.8024   36.4256   63.6681 C   0  0  0  0  0  0  0  0  0  0  0  0
   31.6790   35.5707   64.2287 C   0  0  0  0  0  0  0  0  0  0  0  0
   32.8955   35.8384   63.7313 N   0  0  0  0  0  0  0  0  0  0  0  0
   32.8062   36.8266   62.8838 C   0  0  0  0  0  0  0  0  0  0  0  0
   32.6511   37.7865   57.7538 S   0  0  0  0  0  0  0  0  0  0  0  0
   34.9223   37.5939   55.2338 H   0  0  0  0  0  0  0  0  0  0  0  0
   33.1969   37.4619   54.8168 H   0  0  0  0  0  0  0  0  0  0  0  0
   34.0785   38.9733   54.4897 H   0  0  0  0  0  0  0  0  0  0  0  0
   32.4332   40.0190   60.6194 H   0  0  0  0  0  0  0  0  0  0  0  0
   29.8973   38.2204   61.9316 H   0  0  0  0  0  0  0  0  0  0  0  0
   31.2533   39.2652   62.4191 H   0  0  0  0  0  0  0  0  0  0  0  0
   29.7399   36.4729   63.8552 H   0  0  0  0  0  0  0  0  0  0  0  0
   31.4430   34.8014   64.9491 H   0  0  0  0  0  0  0  0  0  0  0  0
   33.6273   37.2568   62.3296 H   0  0  0  0  0  0  0  0  0  0  0  0
  1  2  1  0  0  0  0
  1 16  1  0  0  0  0
  1 17  1  0  0  0  0
  1 18  1  0  0  0  0
  2 15  1  0  0  0  0
  2  3  2  0  0  0  0
  3  4  1  0  0  0  0
  4  5  2  0  0  0  0
  5  6  1  0  0  0  0
  5 15  1  0  0  0  0
  6  7  1  0  0  0  0
  6 19  1  0  0  0  0
  7  8  2  0  0  0  0
  7  9  1  0  0  0  0
  9 10  1  0  0  0  0
  9 20  1  0  0  0  0
  9 21  1  0  0  0  0
 10 14  1  0  0  0  0
 10 11  1  0  0  0  0
 11 12  2  0  0  0  0
 11 22  1  0  0  0  0
 12 13  1  0  0  0  0
 12 23  1  0  0  0  0
 13 14  2  0  0  0  0
 14 24  1  0  0  0  0
M  END
$$$$
