ZINC000000049462      none
 OpenBabel11202420153D

 35 37  0  0  1  0  0  0  0  0999 V2000
   32.6032   34.9239   62.7783 C   0  0  0  0  0  0  0  0  0  0  0  0
   32.5230   36.3234   63.0554 O   0  0  0  0  0  0  0  0  0  0  0  0
   31.5656   36.6629   64.0605 C   0  0  0  0  0  0  0  0  0  0  0  0
   32.1019   36.3935   65.3574 O   0  0  0  0  0  0  0  0  0  0  0  0
   33.4808   36.7410   65.4998 C   0  0  0  0  0  0  0  0  0  0  0  0
   30.3353   35.8995   63.8582 N   0  0  0  0  0  0  0  0  0  0  0  0
   29.3119   36.6419   63.6518 C   0  0  0  0  0  0  0  0  0  0  0  0
   28.0464   36.1634   63.4353 N   0  0  0  0  0  0  0  0  0  0  0  0
   29.6673   38.1302   63.6874 C   0  0  2  0  0  0  0  0  0  0  0  0
   28.7619   39.0706   64.3676 C   0  0  0  0  0  0  0  0  0  0  0  0
   28.0631   39.7963   64.8925 N   0  0  0  0  0  0  0  0  0  0  0  0
   30.6238   38.6560   62.6156 C   0  0  2  0  0  0  0  0  0  0  0  0
   30.6391   39.7316   62.4396 H   0  0  0  0  0  0  0  0  0  0  0  0
   30.8425   37.7961   61.3974 C   0  0  0  0  0  0  0  0  0  0  0  0
   32.0503   37.8423   60.7266 C   0  0  0  0  0  0  0  0  0  0  0  0
   32.2523   37.0507   59.6115 C   0  0  0  0  0  0  0  0  0  0  0  0
   31.2436   36.2187   59.1626 C   0  0  0  0  0  0  0  0  0  0  0  0
   30.0341   36.1764   59.8304 C   0  0  0  0  0  0  0  0  0  0  0  0
   29.8335   36.9652   60.9477 C   0  0  0  0  0  0  0  0  0  0  0  0
   31.1862   38.1507   63.9459 C   0  0  2  0  0  0  0  0  0  0  0  0
   31.8179   39.0963   64.8807 C   0  0  0  0  0  0  0  0  0  0  0  0
   32.3054   39.8260   65.6020 N   0  0  0  0  0  0  0  0  0  0  0  0
   33.2905   34.7565   61.9491 H   0  0  0  0  0  0  0  0  0  0  0  0
   32.9653   34.3987   63.6620 H   0  0  0  0  0  0  0  0  0  0  0  0
   31.6148   34.5490   62.5123 H   0  0  0  0  0  0  0  0  0  0  0  0
   34.0631   36.2417   64.7255 H   0  0  0  0  0  0  0  0  0  0  0  0
   33.5953   37.8204   65.4016 H   0  0  0  0  0  0  0  0  0  0  0  0
   33.8353   36.4258   66.4811 H   0  0  0  0  0  0  0  0  0  0  0  0
   27.8834   35.2073   63.4317 H   0  0  0  0  0  0  0  0  0  0  0  0
   27.3135   36.7810   63.2855 H   0  0  0  0  0  0  0  0  0  0  0  0
   32.8371   38.4948   61.0753 H   0  0  0  0  0  0  0  0  0  0  0  0
   33.1971   37.0841   59.0895 H   0  0  0  0  0  0  0  0  0  0  0  0
   31.4006   35.6022   58.2899 H   0  0  0  0  0  0  0  0  0  0  0  0
   29.2459   35.5267   59.4794 H   0  0  0  0  0  0  0  0  0  0  0  0
   28.8884   36.9321   61.4695 H   0  0  0  0  0  0  0  0  0  0  0  0
  1  2  1  0  0  0  0
  1 23  1  0  0  0  0
  1 24  1  0  0  0  0
  1 25  1  0  0  0  0
  2  3  1  0  0  0  0
  3 20  1  0  0  0  0
  3  4  1  0  0  0  0
  3  6  1  0  0  0  0
  4  5  1  0  0  0  0
  5 26  1  0  0  0  0
  5 27  1  0  0  0  0
  5 28  1  0  0  0  0
  6  7  2  0  0  0  0
  7  8  1  0  0  0  0
  7  9  1  0  0  0  0
  8 29  1  0  0  0  0
  8 30  1  0  0  0  0
  9 20  1  0  0  0  0
  9 10  1  1  0  0  0
  9 12  1  0  0  0  0
 10 11  3  0  0  0  0
 12 13  1  6  0  0  0
 12 14  1  0  0  0  0
 12 20  1  0  0  0  0
 14 19  2  0  0  0  0
 14 15  1  0  0  0  0
 15 16  2  0  0  0  0
 15 31  1  0  0  0  0
 16 17  1  0  0  0  0
 16 32  1  0  0  0  0
 17 18  2  0  0  0  0
 17 33  1  0  0  0  0
 18 19  1  0  0  0  0
 18 34  1  0  0  0  0
 19 35  1  0  0  0  0
 20 21  1  1  0  0  0
 21 22  3  0  0  0  0
M  END
$$$$
