ZINC000000034387      none
 OpenBabel11202420153D

 42 44  0  0  1  0  0  0  0  0999 V2000
   32.8620   34.3934   54.0190 C   0  0  0  0  0  0  0  0  0  0  0  0
   33.0709   35.8241   54.5197 C   0  0  0  0  0  0  0  0  0  0  0  0
   32.6391   35.9207   55.9026 O   0  0  0  0  0  0  0  0  0  0  0  0
   33.2702   36.8233   56.6789 C   0  0  0  0  0  0  0  0  0  0  0  0
   34.1571   37.5108   56.2129 O   0  0  0  0  0  0  0  0  0  0  0  0
   32.8844   36.9767   58.0944 C   0  0  0  0  0  0  0  0  0  0  0  0
   33.0183   38.2161   58.7267 C   0  0  0  0  0  0  0  0  0  0  0  0
   32.6567   38.3555   60.0479 C   0  0  0  0  0  0  0  0  0  0  0  0
   32.1584   37.2653   60.7531 C   0  0  0  0  0  0  0  0  0  0  0  0
   31.7924   37.4107   62.0942 N   0  0  0  0  0  0  0  0  0  0  0  0
   30.8447   38.2659   62.4980 C   0  0  0  0  0  0  0  0  0  0  0  0
   30.2058   38.9987   61.7740 O   0  0  0  0  0  0  0  0  0  0  0  0
   30.6979   38.1729   64.0011 C   0  0  0  0  0  0  0  0  0  0  0  0
   31.7361   37.1044   64.4003 C   0  0  1  0  0  0  0  0  0  0  0  0
   32.4851   37.5284   65.0691 H   0  0  0  0  0  0  0  0  0  0  0  0
   31.0492   35.9044   65.0551 C   0  0  2  0  0  0  0  0  0  0  0  0
   31.7677   35.3315   65.6413 H   0  0  0  0  0  0  0  0  0  0  0  0
   30.3933   35.0057   63.9766 C   0  0  0  0  0  0  0  0  0  0  0  0
   29.2838   34.3076   64.8095 C   0  0  0  0  0  0  0  0  0  0  0  0
   28.8777   35.4140   65.8069 C   0  0  0  0  0  0  0  0  0  0  0  0
   29.9642   36.3440   65.8875 O   0  0  0  0  0  0  0  0  0  0  0  0
   32.3602   36.7060   63.0807 C   0  0  0  0  0  0  0  0  0  0  0  0
   33.2361   35.8800   62.9392 O   0  0  0  0  0  0  0  0  0  0  0  0
   32.0287   36.0293   60.1288 C   0  0  0  0  0  0  0  0  0  0  0  0
   32.3836   35.8833   58.8066 C   0  0  0  0  0  0  0  0  0  0  0  0
   33.4456   33.7055   54.6308 H   0  0  0  0  0  0  0  0  0  0  0  0
   31.8054   34.1349   54.0886 H   0  0  0  0  0  0  0  0  0  0  0  0
   33.1861   34.3209   52.9809 H   0  0  0  0  0  0  0  0  0  0  0  0
   32.4873   36.5121   53.9079 H   0  0  0  0  0  0  0  0  0  0  0  0
   34.1274   36.0827   54.4500 H   0  0  0  0  0  0  0  0  0  0  0  0
   33.4045   39.0633   58.1795 H   0  0  0  0  0  0  0  0  0  0  0  0
   32.7599   39.3128   60.5372 H   0  0  0  0  0  0  0  0  0  0  0  0
   29.6922   37.8495   64.2691 H   0  0  0  0  0  0  0  0  0  0  0  0
   30.9305   39.1283   64.4714 H   0  0  0  0  0  0  0  0  0  0  0  0
   29.9636   35.6051   63.1742 H   0  0  0  0  0  0  0  0  0  0  0  0
   31.1053   34.2797   63.5842 H   0  0  0  0  0  0  0  0  0  0  0  0
   29.6814   33.4390   65.3346 H   0  0  0  0  0  0  0  0  0  0  0  0
   28.4418   34.0278   64.1766 H   0  0  0  0  0  0  0  0  0  0  0  0
   28.6912   34.9772   66.7879 H   0  0  0  0  0  0  0  0  0  0  0  0
   27.9818   35.9222   65.4505 H   0  0  0  0  0  0  0  0  0  0  0  0
   31.6451   35.1839   60.6809 H   0  0  0  0  0  0  0  0  0  0  0  0
   32.2790   34.9241   58.3214 H   0  0  0  0  0  0  0  0  0  0  0  0
  1  2  1  0  0  0  0
  1 26  1  0  0  0  0
  1 27  1  0  0  0  0
  1 28  1  0  0  0  0
  2  3  1  0  0  0  0
  2 29  1  0  0  0  0
  2 30  1  0  0  0  0
  3  4  1  0  0  0  0
  4  5  2  0  0  0  0
  4  6  1  0  0  0  0
  6 25  2  0  0  0  0
  6  7  1  0  0  0  0
  7  8  2  0  0  0  0
  7 31  1  0  0  0  0
  8  9  1  0  0  0  0
  8 32  1  0  0  0  0
  9 10  1  0  0  0  0
  9 24  2  0  0  0  0
 10 22  1  0  0  0  0
 10 11  1  0  0  0  0
 11 12  2  0  0  0  0
 11 13  1  0  0  0  0
 13 14  1  0  0  0  0
 13 33  1  0  0  0  0
 13 34  1  0  0  0  0
 14 15  1  1  0  0  0
 14 16  1  0  0  0  0
 14 22  1  0  0  0  0
 16 17  1  1  0  0  0
 16 21  1  0  0  0  0
 16 18  1  0  0  0  0
 18 19  1  0  0  0  0
 18 35  1  0  0  0  0
 18 36  1  0  0  0  0
 19 20  1  0  0  0  0
 19 37  1  0  0  0  0
 19 38  1  0  0  0  0
 20 21  1  0  0  0  0
 20 39  1  0  0  0  0
 20 40  1  0  0  0  0
 22 23  2  0  0  0  0
 24 25  1  0  0  0  0
 24 41  1  0  0  0  0
 25 42  1  0  0  0  0
M  END
$$$$
