ZINC000000005469      none
 OpenBabel11202420153D

 36 38  0  0  0  0  0  0  0  0999 V2000
   34.0636   38.9349   55.6273 O   0  0  0  0  0  0  0  0  0  0  0  0
   33.8359   37.7779   55.3443 C   0  0  0  0  0  0  0  0  0  0  0  0
   34.0745   37.1550   53.9866 C   0  0  0  0  0  0  0  0  0  0  0  0
   33.2574   35.8427   54.0191 C   0  0  0  0  0  0  0  0  0  0  0  0
   33.1880   35.5523   55.5348 C   0  0  0  0  0  0  0  0  0  0  0  0
   33.3344   36.8571   56.1905 N   0  0  0  0  0  0  0  0  0  0  0  0
   32.9978   37.1114   57.5153 C   0  0  0  0  0  0  0  0  0  0  0  0
   33.1646   38.3873   58.0556 C   0  0  0  0  0  0  0  0  0  0  0  0
   32.8165   38.5945   59.3767 C   0  0  0  0  0  0  0  0  0  0  0  0
   32.3382   37.5837   60.0868 N   0  0  0  0  0  0  0  0  0  0  0  0
   32.1907   36.3827   59.5474 C   0  0  0  0  0  0  0  0  0  0  0  0
   31.6876   35.3521   60.3222 N   0  0  0  0  0  0  0  0  0  0  0  0
   31.9571   35.5850   61.7468 C   0  0  0  0  0  0  0  0  0  0  0  0
   31.2636   34.5059   62.5816 C   0  0  0  0  0  0  0  0  0  0  0  0
   31.7862   33.1290   62.1625 C   0  0  0  0  0  0  0  0  0  0  0  0
   31.5370   32.9313   60.6648 C   0  0  0  0  0  0  0  0  0  0  0  0
   32.2224   34.0560   59.8856 C   0  0  0  0  0  0  0  0  0  0  0  0
   32.5080   36.1449   58.2835 N   0  0  0  0  0  0  0  0  0  0  0  0
   35.1340   36.9413   53.8457 H   0  0  0  0  0  0  0  0  0  0  0  0
   33.7105   37.8116   53.1962 H   0  0  0  0  0  0  0  0  0  0  0  0
   32.2606   35.9934   53.6048 H   0  0  0  0  0  0  0  0  0  0  0  0
   33.7803   35.0444   53.4923 H   0  0  0  0  0  0  0  0  0  0  0  0
   32.2262   35.1076   55.7900 H   0  0  0  0  0  0  0  0  0  0  0  0
   34.0013   34.8889   55.8293 H   0  0  0  0  0  0  0  0  0  0  0  0
   33.5571   39.1945   57.4548 H   0  0  0  0  0  0  0  0  0  0  0  0
   32.9326   39.5700   59.8254 H   0  0  0  0  0  0  0  0  0  0  0  0
   33.0319   35.5467   61.9242 H   0  0  0  0  0  0  0  0  0  0  0  0
   31.5767   36.5658   62.0328 H   0  0  0  0  0  0  0  0  0  0  0  0
   30.1874   34.5527   62.4153 H   0  0  0  0  0  0  0  0  0  0  0  0
   31.4767   34.6700   63.6379 H   0  0  0  0  0  0  0  0  0  0  0  0
   31.2637   32.3547   62.7242 H   0  0  0  0  0  0  0  0  0  0  0  0
   32.8555   33.0672   62.3650 H   0  0  0  0  0  0  0  0  0  0  0  0
   30.4649   32.9533   60.4683 H   0  0  0  0  0  0  0  0  0  0  0  0
   31.9447   31.9703   60.3511 H   0  0  0  0  0  0  0  0  0  0  0  0
   32.0348   33.9261   58.8197 H   0  0  0  0  0  0  0  0  0  0  0  0
   33.2960   34.0248   60.0718 H   0  0  0  0  0  0  0  0  0  0  0  0
  1  2  2  0  0  0  0
  2  6  1  0  0  0  0
  2  3  1  0  0  0  0
  3  4  1  0  0  0  0
  3 19  1  0  0  0  0
  3 20  1  0  0  0  0
  4  5  1  0  0  0  0
  4 21  1  0  0  0  0
  4 22  1  0  0  0  0
  5  6  1  0  0  0  0
  5 23  1  0  0  0  0
  5 24  1  0  0  0  0
  6  7  1  0  0  0  0
  7 18  2  0  0  0  0
  7  8  1  0  0  0  0
  8  9  2  0  0  0  0
  8 25  1  0  0  0  0
  9 10  1  0  0  0  0
  9 26  1  0  0  0  0
 10 11  2  0  0  0  0
 11 12  1  0  0  0  0
 11 18  1  0  0  0  0
 12 17  1  0  0  0  0
 12 13  1  0  0  0  0
 13 14  1  0  0  0  0
 13 27  1  0  0  0  0
 13 28  1  0  0  0  0
 14 15  1  0  0  0  0
 14 29  1  0  0  0  0
 14 30  1  0  0  0  0
 15 16  1  0  0  0  0
 15 31  1  0  0  0  0
 15 32  1  0  0  0  0
 16 17  1  0  0  0  0
 16 33  1  0  0  0  0
 16 34  1  0  0  0  0
 17 35  1  0  0  0  0
 17 36  1  0  0  0  0
M  END
$$$$
