ZINC000000048025      none
 OpenBabel11202420153D

 30 32  0  0  0  0  0  0  0  0999 V2000
   33.2272   40.8758   59.1237 N   0  0  0  0  0  0  0  0  0  0  0  0
   33.1206   39.6614   58.4650 C   0  0  0  0  0  0  0  0  0  0  0  0
   33.4597   39.5504   57.1845 N   0  0  0  0  0  0  0  0  0  0  0  0
   33.3617   38.3973   56.5490 C   0  0  0  0  0  0  0  0  0  0  0  0
   32.9283   37.3015   57.1370 N   0  0  0  0  0  0  0  0  0  0  0  0
   32.5666   37.3167   58.4151 C   0  0  0  0  0  0  0  0  0  0  0  0
   32.0863   36.3764   59.2973 N   0  0  0  0  0  0  0  0  0  0  0  0
   31.9150   35.4416   59.1032 H   0  0  0  0  0  0  0  0  0  0  0  0
   31.8941   37.0022   60.4983 C   0  0  0  0  0  0  0  0  0  0  0  0
   31.4193   36.3947   61.6430 N   0  0  0  0  0  0  0  0  0  0  0  0
   32.4358   36.4013   62.7027 C   0  0  0  0  0  0  0  0  0  0  0  0
   31.9303   35.5953   63.9015 C   0  0  0  0  0  0  0  0  0  0  0  0
   30.6276   36.2154   64.4143 C   0  0  0  0  0  0  0  0  0  0  0  0
   29.6009   36.2420   63.2786 C   0  0  0  0  0  0  0  0  0  0  0  0
   30.1746   37.0280   62.0973 C   0  0  0  0  0  0  0  0  0  0  0  0
   32.2233   38.2658   60.3969 N   0  0  0  0  0  0  0  0  0  0  0  0
   32.6522   38.5198   59.1348 C   0  0  0  0  0  0  0  0  0  0  0  0
   33.5525   41.6574   58.6502 H   0  0  0  0  0  0  0  0  0  0  0  0
   32.9766   40.9441   60.0583 H   0  0  0  0  0  0  0  0  0  0  0  0
   33.6480   38.3508   55.5087 H   0  0  0  0  0  0  0  0  0  0  0  0
   32.6316   37.4280   63.0118 H   0  0  0  0  0  0  0  0  0  0  0  0
   33.3557   35.9538   62.3261 H   0  0  0  0  0  0  0  0  0  0  0  0
   32.6786   35.6135   64.6938 H   0  0  0  0  0  0  0  0  0  0  0  0
   31.7475   34.5650   63.5963 H   0  0  0  0  0  0  0  0  0  0  0  0
   30.2410   35.6192   65.2409 H   0  0  0  0  0  0  0  0  0  0  0  0
   30.8183   37.2324   64.7568 H   0  0  0  0  0  0  0  0  0  0  0  0
   29.3804   35.2222   62.9633 H   0  0  0  0  0  0  0  0  0  0  0  0
   28.6861   36.7220   63.6262 H   0  0  0  0  0  0  0  0  0  0  0  0
   30.3809   38.0518   62.4093 H   0  0  0  0  0  0  0  0  0  0  0  0
   29.4522   37.0356   61.2812 H   0  0  0  0  0  0  0  0  0  0  0  0
  1  2  1  0  0  0  0
  1 18  1  0  0  0  0
  1 19  1  0  0  0  0
  2 17  2  0  0  0  0
  2  3  1  0  0  0  0
  3  4  2  0  0  0  0
  4  5  1  0  0  0  0
  4 20  1  0  0  0  0
  5  6  2  0  0  0  0
  6 17  1  0  0  0  0
  6  7  1  0  0  0  0
  7  8  1  0  0  0  0
  7  9  1  0  0  0  0
  9 10  1  0  0  0  0
  9 16  2  0  0  0  0
 10 15  1  0  0  0  0
 10 11  1  0  0  0  0
 11 12  1  0  0  0  0
 11 21  1  0  0  0  0
 11 22  1  0  0  0  0
 12 13  1  0  0  0  0
 12 23  1  0  0  0  0
 12 24  1  0  0  0  0
 13 14  1  0  0  0  0
 13 25  1  0  0  0  0
 13 26  1  0  0  0  0
 14 15  1  0  0  0  0
 14 27  1  0  0  0  0
 14 28  1  0  0  0  0
 15 29  1  0  0  0  0
 15 30  1  0  0  0  0
 16 17  1  0  0  0  0
M  END
$$$$
