ZINC000000015095      none
 OpenBabel11202420153D

 33 35  0  0  1  0  0  0  0  0999 V2000
   31.8871   38.3380   60.9056 C   0  0  0  0  0  0  0  0  0  0  0  0
   31.8897   36.8614   60.6045 C   0  0  0  0  0  0  0  0  0  0  0  0
   31.5132   35.9701   61.5613 C   0  0  0  0  0  0  0  0  0  0  0  0
   31.5151   34.5969   61.3009 C   0  0  0  0  0  0  0  0  0  0  0  0
   31.1393   33.7281   62.2746 O   0  0  0  0  0  0  0  0  0  0  0  0
   31.8888   34.1153   60.0649 C   0  0  0  0  0  0  0  0  0  0  0  0
   32.2759   35.0129   59.0595 C   0  0  0  0  0  0  0  0  0  0  0  0
   32.6660   34.5501   57.7875 C   0  0  0  0  0  0  0  0  0  0  0  0
   33.0399   35.4239   56.8157 C   0  0  0  0  0  0  0  0  0  0  0  0
   33.0363   36.8104   57.0711 C   0  0  0  0  0  0  0  0  0  0  0  0
   32.6592   37.3049   58.3223 C   0  0  0  0  0  0  0  0  0  0  0  0
   32.6640   38.6374   58.5602 O   0  0  0  0  0  0  0  0  0  0  0  0
   32.2738   36.4035   59.3337 C   0  0  0  0  0  0  0  0  0  0  0  0
   33.4282   37.7539   56.0152 C   0  0  0  0  0  0  0  0  0  0  0  0
   33.2346   38.9459   56.1354 O   0  0  0  0  0  0  0  0  0  0  0  0
   34.0818   37.1885   54.7719 C   0  0  0  0  0  0  0  0  0  0  0  0
   33.3050   35.9253   54.3786 C   0  0  0  0  0  0  0  0  0  0  0  0
   33.4560   34.8758   55.4760 C   0  0  2  0  0  0  0  0  0  0  0  0
   34.4980   34.5600   55.5273 H   0  0  0  0  0  0  0  0  0  0  0  0
   32.6399   33.7467   55.1580 O   0  0  0  0  0  0  0  0  0  0  0  0
   30.9607   38.7815   60.5407 H   0  0  0  0  0  0  0  0  0  0  0  0
   31.9628   38.4893   61.9824 H   0  0  0  0  0  0  0  0  0  0  0  0
   32.7357   38.8110   60.4117 H   0  0  0  0  0  0  0  0  0  0  0  0
   31.2138   36.3278   62.5353 H   0  0  0  0  0  0  0  0  0  0  0  0
   30.8900   34.1535   63.1065 H   0  0  0  0  0  0  0  0  0  0  0  0
   31.8832   33.0528   59.8715 H   0  0  0  0  0  0  0  0  0  0  0  0
   32.6685   33.4898   57.5823 H   0  0  0  0  0  0  0  0  0  0  0  0
   32.9434   39.1710   57.8037 H   0  0  0  0  0  0  0  0  0  0  0  0
   35.1205   36.9341   54.9824 H   0  0  0  0  0  0  0  0  0  0  0  0
   34.0349   37.9188   53.9640 H   0  0  0  0  0  0  0  0  0  0  0  0
   33.7008   35.5319   53.4423 H   0  0  0  0  0  0  0  0  0  0  0  0
   32.2506   36.1710   54.2531 H   0  0  0  0  0  0  0  0  0  0  0  0
   32.8485   33.3378   54.3069 H   0  0  0  0  0  0  0  0  0  0  0  0
  1  2  1  0  0  0  0
  1 21  1  0  0  0  0
  1 22  1  0  0  0  0
  1 23  1  0  0  0  0
  2 13  2  0  0  0  0
  2  3  1  0  0  0  0
  3  4  2  0  0  0  0
  3 24  1  0  0  0  0
  4  5  1  0  0  0  0
  4  6  1  0  0  0  0
  5 25  1  0  0  0  0
  6  7  2  0  0  0  0
  6 26  1  0  0  0  0
  7 13  1  0  0  0  0
  7  8  1  0  0  0  0
  8  9  2  0  0  0  0
  8 27  1  0  0  0  0
  9 18  1  0  0  0  0
  9 10  1  0  0  0  0
 10 11  2  0  0  0  0
 10 14  1  0  0  0  0
 11 12  1  0  0  0  0
 11 13  1  0  0  0  0
 12 28  1  0  0  0  0
 14 15  2  0  0  0  0
 14 16  1  0  0  0  0
 16 17  1  0  0  0  0
 16 29  1  0  0  0  0
 16 30  1  0  0  0  0
 17 18  1  0  0  0  0
 17 31  1  0  0  0  0
 17 32  1  0  0  0  0
 18 19  1  1  0  0  0
 18 20  1  0  0  0  0
 20 33  1  0  0  0  0
M  END
$$$$
