ZINC000000033607      none
 OpenBabel11202420153D

 31 33  0  0  0  0  0  0  0  0999 V2000
   34.4321   34.1947   55.2521 C   0  0  0  0  0  0  0  0  0  0  0  0
   33.1445   34.7698   55.4841 O   0  0  0  0  0  0  0  0  0  0  0  0
   32.8462   35.1190   56.7633 C   0  0  0  0  0  0  0  0  0  0  0  0
   33.1496   36.3930   57.2216 C   0  0  0  0  0  0  0  0  0  0  0  0
   32.8492   36.7523   58.5183 C   0  0  0  0  0  0  0  0  0  0  0  0
   32.2378   35.8326   59.3743 C   0  0  0  0  0  0  0  0  0  0  0  0
   31.9156   36.2147   60.7610 C   0  0  0  0  0  0  0  0  0  0  0  0
   31.6481   37.4544   60.9801 N   0  0  0  0  0  0  0  0  0  0  0  0
   31.3683   37.9463   62.2521 N   0  0  0  0  0  0  0  0  0  0  0  0
   30.7437   39.0800   62.6602 C   0  0  0  0  0  0  0  0  0  0  0  0
   30.7489   39.0740   63.9691 N   0  0  0  0  0  0  0  0  0  0  0  0
   31.3321   38.0096   64.4097 N   0  0  0  0  0  0  0  0  0  0  0  0
   31.7259   37.2862   63.4074 C   0  0  0  0  0  0  0  0  0  0  0  0
   32.5658   35.7372   63.3729 S   0  0  0  0  0  0  0  0  0  0  0  0
   31.9284   35.1251   61.7891 C   0  0  0  0  0  0  0  0  0  0  0  0
   31.9376   34.5477   58.9140 C   0  0  0  0  0  0  0  0  0  0  0  0
   32.2370   34.1964   57.6112 C   0  0  0  0  0  0  0  0  0  0  0  0
   31.9419   32.9484   57.1587 O   0  0  0  0  0  0  0  0  0  0  0  0
   30.6562   32.7610   56.5640 C   0  0  0  0  0  0  0  0  0  0  0  0
   34.5321   33.2800   55.8362 H   0  0  0  0  0  0  0  0  0  0  0  0
   34.5408   33.9629   54.1926 H   0  0  0  0  0  0  0  0  0  0  0  0
   35.2053   34.9028   55.5502 H   0  0  0  0  0  0  0  0  0  0  0  0
   33.6219   37.1049   56.5609 H   0  0  0  0  0  0  0  0  0  0  0  0
   33.0868   37.7446   58.8726 H   0  0  0  0  0  0  0  0  0  0  0  0
   30.3223   39.8445   62.0241 H   0  0  0  0  0  0  0  0  0  0  0  0
   32.5614   34.3097   61.4391 H   0  0  0  0  0  0  0  0  0  0  0  0
   30.9130   34.7550   61.9305 H   0  0  0  0  0  0  0  0  0  0  0  0
   31.4691   33.8322   59.5736 H   0  0  0  0  0  0  0  0  0  0  0  0
   30.5502   31.7236   56.2469 H   0  0  0  0  0  0  0  0  0  0  0  0
   29.8809   32.9994   57.2923 H   0  0  0  0  0  0  0  0  0  0  0  0
   30.5565   33.4171   55.6995 H   0  0  0  0  0  0  0  0  0  0  0  0
  1  2  1  0  0  0  0
  1 20  1  0  0  0  0
  1 21  1  0  0  0  0
  1 22  1  0  0  0  0
  2  3  1  0  0  0  0
  3 17  2  0  0  0  0
  3  4  1  0  0  0  0
  4  5  2  0  0  0  0
  4 23  1  0  0  0  0
  5  6  1  0  0  0  0
  5 24  1  0  0  0  0
  6  7  1  0  0  0  0
  6 16  2  0  0  0  0
  7 15  1  0  0  0  0
  7  8  2  0  0  0  0
  8  9  1  0  0  0  0
  9 13  1  0  0  0  0
  9 10  1  0  0  0  0
 10 11  2  0  0  0  0
 10 25  1  0  0  0  0
 11 12  1  0  0  0  0
 12 13  2  0  0  0  0
 13 14  1  0  0  0  0
 14 15  1  0  0  0  0
 15 26  1  0  0  0  0
 15 27  1  0  0  0  0
 16 17  1  0  0  0  0
 16 28  1  0  0  0  0
 17 18  1  0  0  0  0
 18 19  1  0  0  0  0
 19 29  1  0  0  0  0
 19 30  1  0  0  0  0
 19 31  1  0  0  0  0
M  END
$$$$
