ZINC000000054284      none
 OpenBabel11202420153D

 30 32  0  0  0  0  0  0  0  0999 V2000
   33.0422   37.2180   57.2840 C   0  0  0  0  0  0  0  0  0  0  0  0
   32.6713   37.5094   58.6329 O   0  0  0  0  0  0  0  0  0  0  0  0
   32.3061   36.4625   59.4097 C   0  0  0  0  0  0  0  0  0  0  0  0
   32.3063   35.2490   58.9066 N   0  0  0  0  0  0  0  0  0  0  0  0
   31.9447   34.2134   59.6760 C   0  0  0  0  0  0  0  0  0  0  0  0
   31.8191   32.9138   59.5524 N   0  0  0  0  0  0  0  0  0  0  0  0
   31.4424   32.4488   60.6081 O   0  0  0  0  0  0  0  0  0  0  0  0
   31.2687   33.2393   61.5122 N   0  0  0  0  0  0  0  0  0  0  0  0
   31.5490   34.4479   61.0852 C   0  0  0  0  0  0  0  0  0  0  0  0
   31.5605   35.6922   61.5794 N   0  0  0  0  0  0  0  0  0  0  0  0
   31.9143   36.6957   60.8037 C   0  0  0  0  0  0  0  0  0  0  0  0
   31.9218   37.9814   61.3099 N   0  0  0  0  0  0  0  0  0  0  0  0
   31.5553   38.2112   62.6384 C   0  0  0  0  0  0  0  0  0  0  0  0
   30.4799   39.0408   62.9306 C   0  0  0  0  0  0  0  0  0  0  0  0
   30.1173   39.2616   64.2446 C   0  0  0  0  0  0  0  0  0  0  0  0
   30.8300   38.6668   65.2697 C   0  0  0  0  0  0  0  0  0  0  0  0
   30.4345   38.9143   66.7026 C   0  0  0  0  0  0  0  0  0  0  0  0
   31.9045   37.8449   64.9826 C   0  0  0  0  0  0  0  0  0  0  0  0
   32.2692   37.6152   63.6706 C   0  0  0  0  0  0  0  0  0  0  0  0
   33.3117   38.1425   56.7734 H   0  0  0  0  0  0  0  0  0  0  0  0
   33.8949   36.5390   57.2803 H   0  0  0  0  0  0  0  0  0  0  0  0
   32.2030   36.7501   56.7693 H   0  0  0  0  0  0  0  0  0  0  0  0
   32.1815   38.7244   60.7429 H   0  0  0  0  0  0  0  0  0  0  0  0
   29.9256   39.5094   62.1307 H   0  0  0  0  0  0  0  0  0  0  0  0
   29.2785   39.9027   64.4723 H   0  0  0  0  0  0  0  0  0  0  0  0
   30.9688   39.7854   67.0816 H   0  0  0  0  0  0  0  0  0  0  0  0
   29.3610   39.0943   66.7573 H   0  0  0  0  0  0  0  0  0  0  0  0
   30.6879   38.0421   67.3053 H   0  0  0  0  0  0  0  0  0  0  0  0
   32.4591   37.3819   65.7855 H   0  0  0  0  0  0  0  0  0  0  0  0
   33.1085   36.9733   63.4472 H   0  0  0  0  0  0  0  0  0  0  0  0
  1  2  1  0  0  0  0
  1 20  1  0  0  0  0
  1 21  1  0  0  0  0
  1 22  1  0  0  0  0
  2  3  1  0  0  0  0
  3 11  1  0  0  0  0
  3  4  2  0  0  0  0
  4  5  1  0  0  0  0
  5  9  1  0  0  0  0
  5  6  2  0  0  0  0
  6  7  1  0  0  0  0
  7  8  1  0  0  0  0
  8  9  2  0  0  0  0
  9 10  1  0  0  0  0
 10 11  2  0  0  0  0
 11 12  1  0  0  0  0
 12 13  1  0  0  0  0
 12 23  1  0  0  0  0
 13 19  2  0  0  0  0
 13 14  1  0  0  0  0
 14 15  2  0  0  0  0
 14 24  1  0  0  0  0
 15 16  1  0  0  0  0
 15 25  1  0  0  0  0
 16 17  1  0  0  0  0
 16 18  2  0  0  0  0
 17 26  1  0  0  0  0
 17 27  1  0  0  0  0
 17 28  1  0  0  0  0
 18 19  1  0  0  0  0
 18 29  1  0  0  0  0
 19 30  1  0  0  0  0
M  END
$$$$
