ZINC000000007573      none
 OpenBabel11202420153D

 18 18  0  0  0  0  0  0  0  0999 V2000
   33.4359   40.8186   59.1821 N   0  0  0  0  0  0  0  0  0  0  0  0
   33.3429   39.5071   58.5406 O   0  0  0  0  0  0  0  0  0  0  0  0
   33.8049   39.4873   57.1885 C   0  0  0  0  0  0  0  0  0  0  0  0
   33.6638   38.0948   56.6297 C   0  0  0  0  0  0  0  0  0  0  0  0
   33.1428   37.0820   57.4170 C   0  0  0  0  0  0  0  0  0  0  0  0
   32.7607   37.3415   58.6866 F   0  0  0  0  0  0  0  0  0  0  0  0
   33.0133   35.8033   56.9023 C   0  0  0  0  0  0  0  0  0  0  0  0
   33.4041   35.5383   55.6031 C   0  0  0  0  0  0  0  0  0  0  0  0
   33.9240   36.5493   54.8172 C   0  0  0  0  0  0  0  0  0  0  0  0
   34.0493   37.8292   55.3285 C   0  0  0  0  0  0  0  0  0  0  0  0
   34.6961   39.1000   54.3381 Cl  0  0  0  0  0  0  0  0  0  0  0  0
   32.9398   41.5176   58.6498 H   0  0  0  0  0  0  0  0  0  0  0  0
   33.0989   40.7810   60.1325 H   0  0  0  0  0  0  0  0  0  0  0  0
   33.2117   40.1802   56.5917 H   0  0  0  0  0  0  0  0  0  0  0  0
   34.8525   39.7866   57.1581 H   0  0  0  0  0  0  0  0  0  0  0  0
   32.6073   35.0128   57.5160 H   0  0  0  0  0  0  0  0  0  0  0  0
   33.3026   34.5409   55.2019 H   0  0  0  0  0  0  0  0  0  0  0  0
   34.2290   36.3413   53.8023 H   0  0  0  0  0  0  0  0  0  0  0  0
  1  2  1  0  0  0  0
  1 12  1  0  0  0  0
  1 13  1  0  0  0  0
  2  3  1  0  0  0  0
  3  4  1  0  0  0  0
  3 14  1  0  0  0  0
  3 15  1  0  0  0  0
  4 10  2  0  0  0  0
  4  5  1  0  0  0  0
  5  6  1  0  0  0  0
  5  7  2  0  0  0  0
  7  8  1  0  0  0  0
  7 16  1  0  0  0  0
  8  9  2  0  0  0  0
  8 17  1  0  0  0  0
  9 10  1  0  0  0  0
  9 18  1  0  0  0  0
 10 11  1  0  0  0  0
M  END
$$$$
