ZINC000000035114      none
 OpenBabel11202420153D

 36 37  0  0  0  0  0  0  0  0999 V2000
   31.6082   33.5612   59.4362 C   0  0  0  0  0  0  0  0  0  0  0  0
   31.8049   34.8353   60.0528 O   0  0  0  0  0  0  0  0  0  0  0  0
   32.2250   35.8507   59.2514 C   0  0  0  0  0  0  0  0  0  0  0  0
   32.4364   35.6248   57.9054 C   0  0  0  0  0  0  0  0  0  0  0  0
   32.8748   36.6693   57.0824 C   0  0  0  0  0  0  0  0  0  0  0  0
   33.1061   36.4317   55.6517 C   0  0  0  0  0  0  0  0  0  0  0  0
   32.9174   35.3295   55.1816 O   0  0  0  0  0  0  0  0  0  0  0  0
   33.0916   37.9409   57.6267 C   0  0  0  0  0  0  0  0  0  0  0  0
   32.8726   38.1606   58.9725 C   0  0  0  0  0  0  0  0  0  0  0  0
   33.0825   39.3956   59.5021 O   0  0  0  0  0  0  0  0  0  0  0  0
   33.5295   40.4172   58.6084 C   0  0  0  0  0  0  0  0  0  0  0  0
   32.4364   37.1188   59.7883 C   0  0  0  0  0  0  0  0  0  0  0  0
   32.2220   37.3387   61.1115 O   0  0  0  0  0  0  0  0  0  0  0  0
   30.9088   37.7501   61.4963 C   0  0  0  0  0  0  0  0  0  0  0  0
   30.8608   37.9444   62.9901 C   0  0  0  0  0  0  0  0  0  0  0  0
   30.0027   38.8799   63.5376 C   0  0  0  0  0  0  0  0  0  0  0  0
   29.9539   39.0548   64.9077 C   0  0  0  0  0  0  0  0  0  0  0  0
   30.7723   38.3011   65.7311 C   0  0  0  0  0  0  0  0  0  0  0  0
   30.7305   38.4758   67.0700 F   0  0  0  0  0  0  0  0  0  0  0  0
   31.6359   37.3684   65.1810 C   0  0  0  0  0  0  0  0  0  0  0  0
   31.6787   37.1909   63.8112 C   0  0  0  0  0  0  0  0  0  0  0  0
   32.5468   33.2203   58.9992 H   0  0  0  0  0  0  0  0  0  0  0  0
   31.2741   32.8430   60.1850 H   0  0  0  0  0  0  0  0  0  0  0  0
   30.8539   33.6485   58.6544 H   0  0  0  0  0  0  0  0  0  0  0  0
   32.2678   34.6426   57.4889 H   0  0  0  0  0  0  0  0  0  0  0  0
   33.4442   37.2383   55.0180 H   0  0  0  0  0  0  0  0  0  0  0  0
   33.4294   38.7491   56.9948 H   0  0  0  0  0  0  0  0  0  0  0  0
   34.4812   40.1224   58.1665 H   0  0  0  0  0  0  0  0  0  0  0  0
   32.7907   40.5585   57.8196 H   0  0  0  0  0  0  0  0  0  0  0  0
   33.6573   41.3499   59.1578 H   0  0  0  0  0  0  0  0  0  0  0  0
   30.1888   36.9850   61.2061 H   0  0  0  0  0  0  0  0  0  0  0  0
   30.6619   38.6885   60.9998 H   0  0  0  0  0  0  0  0  0  0  0  0
   29.3677   39.4714   62.8949 H   0  0  0  0  0  0  0  0  0  0  0  0
   29.2805   39.7829   65.3356 H   0  0  0  0  0  0  0  0  0  0  0  0
   32.2755   36.7800   65.8223 H   0  0  0  0  0  0  0  0  0  0  0  0
   32.3518   36.4634   63.3820 H   0  0  0  0  0  0  0  0  0  0  0  0
  1  2  1  0  0  0  0
  1 22  1  0  0  0  0
  1 23  1  0  0  0  0
  1 24  1  0  0  0  0
  2  3  1  0  0  0  0
  3 12  2  0  0  0  0
  3  4  1  0  0  0  0
  4  5  2  0  0  0  0
  4 25  1  0  0  0  0
  5  6  1  0  0  0  0
  5  8  1  0  0  0  0
  6  7  2  0  0  0  0
  6 26  1  0  0  0  0
  8  9  2  0  0  0  0
  8 27  1  0  0  0  0
  9 10  1  0  0  0  0
  9 12  1  0  0  0  0
 10 11  1  0  0  0  0
 11 28  1  0  0  0  0
 11 29  1  0  0  0  0
 11 30  1  0  0  0  0
 12 13  1  0  0  0  0
 13 14  1  0  0  0  0
 14 15  1  0  0  0  0
 14 31  1  0  0  0  0
 14 32  1  0  0  0  0
 15 21  2  0  0  0  0
 15 16  1  0  0  0  0
 16 17  2  0  0  0  0
 16 33  1  0  0  0  0
 17 18  1  0  0  0  0
 17 34  1  0  0  0  0
 18 19  1  0  0  0  0
 18 20  2  0  0  0  0
 20 21  1  0  0  0  0
 20 35  1  0  0  0  0
 21 36  1  0  0  0  0
M  END
$$$$
