ZINC000000028252      none
 OpenBabel11202420163D

 25 26  0  0  0  0  0  0  0  0999 V2000
   34.0154   39.9365   56.1047 N   0  0  0  0  0  0  0  0  0  0  0  0
   33.5806   38.9393   56.8470 C   0  0  0  0  0  0  0  0  0  0  0  0
   33.1629   39.1726   58.1786 C   0  0  0  0  0  0  0  0  0  0  0  0
   32.7182   38.1300   58.9278 C   0  0  0  0  0  0  0  0  0  0  0  0
   32.6797   36.8398   58.3712 C   0  0  0  0  0  0  0  0  0  0  0  0
   33.0764   36.6332   57.0979 C   0  0  0  0  0  0  0  0  0  0  0  0
   33.5304   37.6659   56.3332 N   0  0  0  0  0  0  0  0  0  0  0  0
   33.9611   37.4182   54.9550 C   0  0  0  0  0  0  0  0  0  0  0  0
   33.8093   35.9530   54.6369 C   0  0  0  0  0  0  0  0  0  0  0  0
   32.6203   35.4887   54.1064 C   0  0  0  0  0  0  0  0  0  0  0  0
   32.4912   34.1390   53.8170 C   0  0  0  0  0  0  0  0  0  0  0  0
   33.5676   33.3032   54.0732 C   0  0  0  0  0  0  0  0  0  0  0  0
   34.7230   33.8385   54.6101 C   0  0  0  0  0  0  0  0  0  0  0  0
   34.8123   35.1288   54.8675 N   0  0  0  0  0  0  0  0  0  0  0  0
   34.0495   40.8344   56.4703 H   0  0  0  0  0  0  0  0  0  0  0  0
   33.1968   40.1686   58.5947 H   0  0  0  0  0  0  0  0  0  0  0  0
   32.3962   38.2918   59.9459 H   0  0  0  0  0  0  0  0  0  0  0  0
   32.3267   36.0096   58.9648 H   0  0  0  0  0  0  0  0  0  0  0  0
   33.0374   35.6374   56.6815 H   0  0  0  0  0  0  0  0  0  0  0  0
   35.0059   37.7080   54.8432 H   0  0  0  0  0  0  0  0  0  0  0  0
   33.3465   38.0039   54.2714 H   0  0  0  0  0  0  0  0  0  0  0  0
   31.8024   36.1688   53.9195 H   0  0  0  0  0  0  0  0  0  0  0  0
   31.5742   33.7481   53.4015 H   0  0  0  0  0  0  0  0  0  0  0  0
   33.5021   32.2464   53.8600 H   0  0  0  0  0  0  0  0  0  0  0  0
   35.5640   33.1933   54.8169 H   0  0  0  0  0  0  0  0  0  0  0  0
  1  2  2  0  0  0  0
  1 15  1  0  0  0  0
  2  7  1  0  0  0  0
  2  3  1  0  0  0  0
  3  4  2  0  0  0  0
  3 16  1  0  0  0  0
  4  5  1  0  0  0  0
  4 17  1  0  0  0  0
  5  6  2  0  0  0  0
  5 18  1  0  0  0  0
  6  7  1  0  0  0  0
  6 19  1  0  0  0  0
  7  8  1  0  0  0  0
  8  9  1  0  0  0  0
  8 20  1  0  0  0  0
  8 21  1  0  0  0  0
  9 14  2  0  0  0  0
  9 10  1  0  0  0  0
 10 11  2  0  0  0  0
 10 22  1  0  0  0  0
 11 12  1  0  0  0  0
 11 23  1  0  0  0  0
 12 13  2  0  0  0  0
 12 24  1  0  0  0  0
 13 14  1  0  0  0  0
 13 25  1  0  0  0  0
M  END
$$$$
