ZINC000000024750      none
 OpenBabel11202420153D

 27 29  0  0  0  0  0  0  0  0999 V2000
   32.8830   32.8758   61.6178 C   0  0  0  0  0  0  0  0  0  0  0  0
   31.6171   32.5464   61.9317 C   0  0  0  0  0  0  0  0  0  0  0  0
   30.8506   32.7219   60.8430 O   0  0  0  0  0  0  0  0  0  0  0  0
   31.6101   33.1623   59.8267 C   0  0  0  0  0  0  0  0  0  0  0  0
   31.1241   33.4785   58.4357 C   0  0  0  0  0  0  0  0  0  0  0  0
   32.5163   34.0367   57.4226 S   0  0  0  0  0  0  0  0  0  0  0  0
   32.6336   35.7108   57.9596 C   0  0  0  0  0  0  0  0  0  0  0  0
   32.2822   36.0582   59.1916 N   0  0  0  0  0  0  0  0  0  0  0  0
   32.3661   37.3116   59.6065 C   0  0  0  0  0  0  0  0  0  0  0  0
   32.8008   38.2883   58.8456 N   0  0  0  0  0  0  0  0  0  0  0  0
   33.1773   38.0493   57.5804 C   0  0  0  0  0  0  0  0  0  0  0  0
   33.6418   39.0690   56.7388 C   0  0  0  0  0  0  0  0  0  0  0  0
   34.0172   38.7697   55.4627 C   0  0  0  0  0  0  0  0  0  0  0  0
   33.9460   37.4657   54.9811 C   0  0  0  0  0  0  0  0  0  0  0  0
   33.4981   36.4498   55.7737 C   0  0  0  0  0  0  0  0  0  0  0  0
   33.1062   36.7233   57.0884 C   0  0  0  0  0  0  0  0  0  0  0  0
   32.8795   33.2677   60.2594 C   0  0  0  0  0  0  0  0  0  0  0  0
   33.7386   32.8436   62.2761 H   0  0  0  0  0  0  0  0  0  0  0  0
   31.2752   32.2000   62.8958 H   0  0  0  0  0  0  0  0  0  0  0  0
   30.3713   34.2653   58.4840 H   0  0  0  0  0  0  0  0  0  0  0  0
   30.6871   32.5843   57.9915 H   0  0  0  0  0  0  0  0  0  0  0  0
   32.0676   37.5406   60.6188 H   0  0  0  0  0  0  0  0  0  0  0  0
   33.7017   40.0855   57.0987 H   0  0  0  0  0  0  0  0  0  0  0  0
   34.3749   39.5568   54.8155 H   0  0  0  0  0  0  0  0  0  0  0  0
   34.2491   37.2556   53.9660 H   0  0  0  0  0  0  0  0  0  0  0  0
   33.4472   35.4419   55.3892 H   0  0  0  0  0  0  0  0  0  0  0  0
   33.7318   33.5918   59.6808 H   0  0  0  0  0  0  0  0  0  0  0  0
  1 17  1  0  0  0  0
  1  2  2  0  0  0  0
  1 18  1  0  0  0  0
  2  3  1  0  0  0  0
  2 19  1  0  0  0  0
  3  4  1  0  0  0  0
  4  5  1  0  0  0  0
  4 17  2  0  0  0  0
  5  6  1  0  0  0  0
  5 20  1  0  0  0  0
  5 21  1  0  0  0  0
  6  7  1  0  0  0  0
  7 16  2  0  0  0  0
  7  8  1  0  0  0  0
  8  9  2  0  0  0  0
  9 10  1  0  0  0  0
  9 22  1  0  0  0  0
 10 11  2  0  0  0  0
 11 16  1  0  0  0  0
 11 12  1  0  0  0  0
 12 13  2  0  0  0  0
 12 23  1  0  0  0  0
 13 14  1  0  0  0  0
 13 24  1  0  0  0  0
 14 15  2  0  0  0  0
 14 25  1  0  0  0  0
 15 16  1  0  0  0  0
 15 26  1  0  0  0  0
 17 27  1  0  0  0  0
M  END
$$$$
