ZINC000000000271      none
 OpenBabel11202420153D

 27 28  0  0  1  0  0  0  0  0999 V2000
   29.6224   37.7535   63.0464 C   0  0  0  0  0  0  0  0  0  0  0  0
   29.2540   36.3399   62.5911 C   0  0  0  0  0  0  0  0  0  0  0  0
   30.1810   35.9075   61.5425 N   0  0  0  0  0  0  0  0  0  0  0  0
   31.3302   35.2627   61.7744 C   0  0  0  0  0  0  0  0  0  0  0  0
   31.7266   34.9667   62.8846 O   0  0  0  0  0  0  0  0  0  0  0  0
   31.9979   34.9788   60.6415 N   0  0  0  0  0  0  0  0  0  0  0  0
   31.1846   35.5027   59.5306 C   0  0  2  0  0  0  0  0  0  0  0  0
   30.8787   34.6954   58.8652 H   0  0  0  0  0  0  0  0  0  0  0  0
   31.9451   36.5568   58.7680 C   0  0  0  0  0  0  0  0  0  0  0  0
   31.8529   37.8837   59.1443 C   0  0  0  0  0  0  0  0  0  0  0  0
   32.5462   38.8513   58.4415 C   0  0  0  0  0  0  0  0  0  0  0  0
   33.3399   38.4907   57.3687 C   0  0  0  0  0  0  0  0  0  0  0  0
   33.4356   37.1632   56.9950 C   0  0  0  0  0  0  0  0  0  0  0  0
   32.7384   36.1963   57.6949 C   0  0  0  0  0  0  0  0  0  0  0  0
   29.9820   36.1104   60.2253 C   0  0  0  0  0  0  0  0  0  0  0  0
   29.0380   36.6645   59.7041 O   0  0  0  0  0  0  0  0  0  0  0  0
   30.6400   37.7555   63.4374 H   0  0  0  0  0  0  0  0  0  0  0  0
   29.5574   38.4365   62.1994 H   0  0  0  0  0  0  0  0  0  0  0  0
   28.9327   38.0753   63.8266 H   0  0  0  0  0  0  0  0  0  0  0  0
   28.2365   36.3379   62.2001 H   0  0  0  0  0  0  0  0  0  0  0  0
   29.3191   35.6570   63.4381 H   0  0  0  0  0  0  0  0  0  0  0  0
   32.8486   34.5184   60.5701 H   0  0  0  0  0  0  0  0  0  0  0  0
   31.2363   38.1650   59.9852 H   0  0  0  0  0  0  0  0  0  0  0  0
   32.4715   39.8885   58.7333 H   0  0  0  0  0  0  0  0  0  0  0  0
   33.8849   39.2461   56.8221 H   0  0  0  0  0  0  0  0  0  0  0  0
   34.0554   36.8814   56.1567 H   0  0  0  0  0  0  0  0  0  0  0  0
   32.8132   35.1591   57.4030 H   0  0  0  0  0  0  0  0  0  0  0  0
  1  2  1  0  0  0  0
  1 17  1  0  0  0  0
  1 18  1  0  0  0  0
  1 19  1  0  0  0  0
  2  3  1  0  0  0  0
  2 20  1  0  0  0  0
  2 21  1  0  0  0  0
  3 15  1  0  0  0  0
  3  4  1  0  0  0  0
  4  5  2  0  0  0  0
  4  6  1  0  0  0  0
  6  7  1  0  0  0  0
  6 22  1  0  0  0  0
  7  8  1  6  0  0  0
  7  9  1  0  0  0  0
  7 15  1  0  0  0  0
  9 14  2  0  0  0  0
  9 10  1  0  0  0  0
 10 11  2  0  0  0  0
 10 23  1  0  0  0  0
 11 12  1  0  0  0  0
 11 24  1  0  0  0  0
 12 13  2  0  0  0  0
 12 25  1  0  0  0  0
 13 14  1  0  0  0  0
 13 26  1  0  0  0  0
 14 27  1  0  0  0  0
 15 16  2  0  0  0  0
M  END
$$$$
