ZINC000000023249      none
 OpenBabel11202420153D

 29 31  0  0  0  0  0  0  0  0999 V2000
   35.5565   30.9394   53.7497 O   0  0  0  0  0  0  0  0  0  0  0  0
   34.6884   31.6245   53.2454 C   0  0  0  0  0  0  0  0  0  0  0  0
   34.1031   32.6710   53.9802 C   0  0  0  0  0  0  0  0  0  0  0  0
   33.1165   33.5087   53.5169 C   0  0  0  0  0  0  0  0  0  0  0  0
   32.6995   34.4468   54.4114 C   0  0  0  0  0  0  0  0  0  0  0  0
   33.3395   34.4084   55.6258 C   0  0  0  0  0  0  0  0  0  0  0  0
   33.0732   35.3116   56.7492 C   0  0  0  0  0  0  0  0  0  0  0  0
   33.2165   36.6701   56.7174 C   0  0  0  0  0  0  0  0  0  0  0  0
   32.9088   37.3059   57.8910 C   0  0  0  0  0  0  0  0  0  0  0  0
   32.5090   36.4779   58.9014 C   0  0  0  0  0  0  0  0  0  0  0  0
   32.1265   36.9145   60.2519 C   0  0  0  0  0  0  0  0  0  0  0  0
   31.5625   38.1151   60.5617 C   0  0  0  0  0  0  0  0  0  0  0  0
   31.3005   38.2923   61.9032 C   0  0  0  0  0  0  0  0  0  0  0  0
   31.6283   37.2612   62.6877 C   0  0  0  0  0  0  0  0  0  0  0  0
   31.4352   37.2162   64.1817 C   0  0  0  0  0  0  0  0  0  0  0  0
   31.8726   38.4496   64.7558 O   0  0  0  0  0  0  0  0  0  0  0  0
   32.3260   35.9688   61.7214 S   0  0  0  0  0  0  0  0  0  0  0  0
   32.5285   34.8104   58.3441 S   0  0  0  0  0  0  0  0  0  0  0  0
   34.5215   33.1066   55.6316 S   0  0  0  0  0  0  0  0  0  0  0  0
   34.3665   31.4297   52.2331 H   0  0  0  0  0  0  0  0  0  0  0  0
   32.7016   33.4263   52.5233 H   0  0  0  0  0  0  0  0  0  0  0  0
   31.9278   35.1668   54.1827 H   0  0  0  0  0  0  0  0  0  0  0  0
   33.5466   37.2006   55.8366 H   0  0  0  0  0  0  0  0  0  0  0  0
   32.9773   38.3773   58.0084 H   0  0  0  0  0  0  0  0  0  0  0  0
   31.3430   38.8674   59.8184 H   0  0  0  0  0  0  0  0  0  0  0  0
   30.8585   39.1977   62.2919 H   0  0  0  0  0  0  0  0  0  0  0  0
   30.3797   37.0645   64.4071 H   0  0  0  0  0  0  0  0  0  0  0  0
   32.0175   36.3946   64.5987 H   0  0  0  0  0  0  0  0  0  0  0  0
   31.7773   38.4915   65.7173 H   0  0  0  0  0  0  0  0  0  0  0  0
  1  2  2  0  0  0  0
  2  3  1  0  0  0  0
  2 20  1  0  0  0  0
  3 19  1  0  0  0  0
  3  4  2  0  0  0  0
  4  5  1  0  0  0  0
  4 21  1  0  0  0  0
  5  6  2  0  0  0  0
  5 22  1  0  0  0  0
  6  7  1  0  0  0  0
  6 19  1  0  0  0  0
  7 18  1  0  0  0  0
  7  8  2  0  0  0  0
  8  9  1  0  0  0  0
  8 23  1  0  0  0  0
  9 10  2  0  0  0  0
  9 24  1  0  0  0  0
 10 11  1  0  0  0  0
 10 18  1  0  0  0  0
 11 17  1  0  0  0  0
 11 12  2  0  0  0  0
 12 13  1  0  0  0  0
 12 25  1  0  0  0  0
 13 14  2  0  0  0  0
 13 26  1  0  0  0  0
 14 15  1  0  0  0  0
 14 17  1  0  0  0  0
 15 16  1  0  0  0  0
 15 27  1  0  0  0  0
 15 28  1  0  0  0  0
 16 29  1  0  0  0  0
M  END
$$$$
