ZINC000000015432      none
 OpenBabel11202420153D

 27 28  0  0  0  0  0  0  0  0999 V2000
   29.0030   39.4639   62.9393 O   0  0  0  0  0  0  0  0  0  0  0  0
   29.6796   39.1729   63.9023 C   0  0  0  0  0  0  0  0  0  0  0  0
   29.3062   39.4556   65.3408 C   0  0  0  0  0  0  0  0  0  0  0  0
   30.6333   39.2886   66.1168 C   0  0  0  0  0  0  0  0  0  0  0  0
   31.4197   38.3321   65.1904 C   0  0  0  0  0  0  0  0  0  0  0  0
   30.8705   38.5520   63.8472 N   0  0  0  0  0  0  0  0  0  0  0  0
   31.4792   38.1745   62.7055 C   0  0  0  0  0  0  0  0  0  0  0  0
   32.5583   37.6169   62.7478 O   0  0  0  0  0  0  0  0  0  0  0  0
   30.8914   38.4157   61.5169 N   0  0  0  0  0  0  0  0  0  0  0  0
   31.5238   38.0236   60.3310 C   0  0  0  0  0  0  0  0  0  0  0  0
   32.3906   38.8941   59.6841 C   0  0  0  0  0  0  0  0  0  0  0  0
   33.0127   38.5046   58.5140 C   0  0  0  0  0  0  0  0  0  0  0  0
   32.7732   37.2490   57.9862 C   0  0  0  0  0  0  0  0  0  0  0  0
   31.9106   36.3791   58.6273 C   0  0  0  0  0  0  0  0  0  0  0  0
   31.2848   36.7626   59.7987 C   0  0  0  0  0  0  0  0  0  0  0  0
   30.2022   35.6700   60.6037 Cl  0  0  0  0  0  0  0  0  0  0  0  0
   28.9293   40.4731   65.4443 H   0  0  0  0  0  0  0  0  0  0  0  0
   28.5646   38.7374   65.6907 H   0  0  0  0  0  0  0  0  0  0  0  0
   31.1461   40.2446   66.2228 H   0  0  0  0  0  0  0  0  0  0  0  0
   30.4608   38.8302   67.0906 H   0  0  0  0  0  0  0  0  0  0  0  0
   31.2671   37.2968   65.4954 H   0  0  0  0  0  0  0  0  0  0  0  0
   32.4812   38.5789   65.2088 H   0  0  0  0  0  0  0  0  0  0  0  0
   30.0302   38.8608   61.4831 H   0  0  0  0  0  0  0  0  0  0  0  0
   32.5781   39.8750   60.0952 H   0  0  0  0  0  0  0  0  0  0  0  0
   33.6836   39.1831   58.0082 H   0  0  0  0  0  0  0  0  0  0  0  0
   33.2610   36.9472   57.0711 H   0  0  0  0  0  0  0  0  0  0  0  0
   31.7257   35.3993   58.2125 H   0  0  0  0  0  0  0  0  0  0  0  0
  1  2  2  0  0  0  0
  2  6  1  0  0  0  0
  2  3  1  0  0  0  0
  3  4  1  0  0  0  0
  3 17  1  0  0  0  0
  3 18  1  0  0  0  0
  4  5  1  0  0  0  0
  4 19  1  0  0  0  0
  4 20  1  0  0  0  0
  5  6  1  0  0  0  0
  5 21  1  0  0  0  0
  5 22  1  0  0  0  0
  6  7  1  0  0  0  0
  7  8  2  0  0  0  0
  7  9  1  0  0  0  0
  9 10  1  0  0  0  0
  9 23  1  0  0  0  0
 10 15  2  0  0  0  0
 10 11  1  0  0  0  0
 11 12  2  0  0  0  0
 11 24  1  0  0  0  0
 12 13  1  0  0  0  0
 12 25  1  0  0  0  0
 13 14  2  0  0  0  0
 13 26  1  0  0  0  0
 14 15  1  0  0  0  0
 14 27  1  0  0  0  0
 15 16  1  0  0  0  0
M  END
$$$$
