ZINC000000026357      none
 OpenBabel11202420153D

 19 20  0  0  0  0  0  0  0  0999 V2000
   33.9618   39.9978   56.6221 O   0  0  0  0  0  0  0  0  0  0  0  0
   33.4110   39.0883   57.4705 C   0  0  0  0  0  0  0  0  0  0  0  0
   33.2116   37.7823   57.0520 C   0  0  0  0  0  0  0  0  0  0  0  0
   32.6518   36.8576   57.9124 C   0  0  0  0  0  0  0  0  0  0  0  0
   32.2880   37.2346   59.1979 C   0  0  0  0  0  0  0  0  0  0  0  0
   31.7195   36.2938   60.0705 N   0  0  0  0  0  0  0  0  0  0  0  0
   31.4558   34.9940   59.8160 C   0  0  0  0  0  0  0  0  0  0  0  0
   30.9318   34.4846   60.9003 N   0  0  0  0  0  0  0  0  0  0  0  0
   30.8389   35.3761   61.8201 N   0  0  0  0  0  0  0  0  0  0  0  0
   31.2968   36.5041   61.3949 N   0  0  0  0  0  0  0  0  0  0  0  0
   32.4858   38.5419   59.6205 C   0  0  0  0  0  0  0  0  0  0  0  0
   33.0415   39.4706   58.7567 C   0  0  0  0  0  0  0  0  0  0  0  0
   33.2306   40.7535   59.1663 O   0  0  0  0  0  0  0  0  0  0  0  0
   34.1853   39.6394   55.7523 H   0  0  0  0  0  0  0  0  0  0  0  0
   33.4944   37.4869   56.0524 H   0  0  0  0  0  0  0  0  0  0  0  0
   32.4975   35.8402   57.5847 H   0  0  0  0  0  0  0  0  0  0  0  0
   31.6444   34.4718   58.8897 H   0  0  0  0  0  0  0  0  0  0  0  0
   32.2024   38.8354   60.6204 H   0  0  0  0  0  0  0  0  0  0  0  0
   32.9434   40.9230   60.0740 H   0  0  0  0  0  0  0  0  0  0  0  0
  1  2  1  0  0  0  0
  1 14  1  0  0  0  0
  2 12  2  0  0  0  0
  2  3  1  0  0  0  0
  3  4  2  0  0  0  0
  3 15  1  0  0  0  0
  4  5  1  0  0  0  0
  4 16  1  0  0  0  0
  5  6  1  0  0  0  0
  5 11  2  0  0  0  0
  6 10  1  0  0  0  0
  6  7  1  0  0  0  0
  7  8  2  0  0  0  0
  7 17  1  0  0  0  0
  8  9  1  0  0  0  0
  9 10  2  0  0  0  0
 11 12  1  0  0  0  0
 11 18  1  0  0  0  0
 12 13  1  0  0  0  0
 13 19  1  0  0  0  0
M  END
$$$$
