ZINC000000030649      none
 OpenBabel11202420163D

 35 35  0  0  0  0  0  0  0  0999 V2000
   34.6416   41.0304   59.2893 C   0  0  0  0  0  0  0  0  0  0  0  0
   33.4156   40.6762   58.6462 O   0  0  0  0  0  0  0  0  0  0  0  0
   33.3351   39.4264   58.1162 C   0  0  0  0  0  0  0  0  0  0  0  0
   33.7151   39.2036   56.8027 C   0  0  0  0  0  0  0  0  0  0  0  0
   33.6276   37.9338   56.2631 C   0  0  0  0  0  0  0  0  0  0  0  0
   33.1606   36.8822   57.0319 C   0  0  0  0  0  0  0  0  0  0  0  0
   33.0537   35.2901   56.3483 Cl  0  0  0  0  0  0  0  0  0  0  0  0
   32.7795   37.0969   58.3439 C   0  0  0  0  0  0  0  0  0  0  0  0
   32.8650   38.3687   58.8911 C   0  0  0  0  0  0  0  0  0  0  0  0
   32.4790   38.5889   60.2200 N   0  0  0  0  0  0  0  0  0  0  0  0
   31.5157   37.8283   60.7768 C   0  0  0  0  0  0  0  0  0  0  0  0
   30.9830   36.9531   60.1277 O   0  0  0  0  0  0  0  0  0  0  0  0
   31.1005   38.0653   62.2060 C   0  0  0  0  0  0  0  0  0  0  0  0
   31.3453   36.7965   63.0251 C   0  0  0  0  0  0  0  0  0  0  0  0
   32.5286   36.0278   62.4337 C   0  0  0  0  0  0  0  0  0  0  0  0
   31.6572   37.1771   64.4738 C   0  0  0  0  0  0  0  0  0  0  0  0
   30.0948   35.9157   62.9872 C   0  0  0  0  0  0  0  0  0  0  0  0
   35.4604   40.9627   58.5730 H   0  0  0  0  0  0  0  0  0  0  0  0
   34.5724   42.0506   59.6667 H   0  0  0  0  0  0  0  0  0  0  0  0
   34.8273   40.3480   60.1187 H   0  0  0  0  0  0  0  0  0  0  0  0
   34.0796   40.0223   56.2000 H   0  0  0  0  0  0  0  0  0  0  0  0
   33.9240   37.7622   55.2388 H   0  0  0  0  0  0  0  0  0  0  0  0
   32.4157   36.2747   58.9422 H   0  0  0  0  0  0  0  0  0  0  0  0
   32.9050   39.2889   60.7391 H   0  0  0  0  0  0  0  0  0  0  0  0
   31.6850   38.8854   62.6229 H   0  0  0  0  0  0  0  0  0  0  0  0
   30.0414   38.3205   62.2391 H   0  0  0  0  0  0  0  0  0  0  0  0
   33.4195   36.6553   62.4607 H   0  0  0  0  0  0  0  0  0  0  0  0
   32.7030   35.1240   63.0174 H   0  0  0  0  0  0  0  0  0  0  0  0
   32.3063   35.7568   61.4017 H   0  0  0  0  0  0  0  0  0  0  0  0
   30.8142   37.7247   64.8953 H   0  0  0  0  0  0  0  0  0  0  0  0
   31.8316   36.2732   65.0575 H   0  0  0  0  0  0  0  0  0  0  0  0
   32.5481   37.8046   64.5009 H   0  0  0  0  0  0  0  0  0  0  0  0
   29.8726   35.6446   61.9552 H   0  0  0  0  0  0  0  0  0  0  0  0
   30.2692   35.0119   63.5709 H   0  0  0  0  0  0  0  0  0  0  0  0
   29.2518   36.4634   63.4086 H   0  0  0  0  0  0  0  0  0  0  0  0
  1  2  1  0  0  0  0
  1 18  1  0  0  0  0
  1 19  1  0  0  0  0
  1 20  1  0  0  0  0
  2  3  1  0  0  0  0
  3  9  2  0  0  0  0
  3  4  1  0  0  0  0
  4  5  2  0  0  0  0
  4 21  1  0  0  0  0
  5  6  1  0  0  0  0
  5 22  1  0  0  0  0
  6  7  1  0  0  0  0
  6  8  2  0  0  0  0
  8  9  1  0  0  0  0
  8 23  1  0  0  0  0
  9 10  1  0  0  0  0
 10 11  1  0  0  0  0
 10 24  1  0  0  0  0
 11 12  2  0  0  0  0
 11 13  1  0  0  0  0
 13 14  1  0  0  0  0
 13 25  1  0  0  0  0
 13 26  1  0  0  0  0
 14 15  1  0  0  0  0
 14 16  1  0  0  0  0
 14 17  1  0  0  0  0
 15 27  1  0  0  0  0
 15 28  1  0  0  0  0
 15 29  1  0  0  0  0
 16 30  1  0  0  0  0
 16 31  1  0  0  0  0
 16 32  1  0  0  0  0
 17 33  1  0  0  0  0
 17 34  1  0  0  0  0
 17 35  1  0  0  0  0
M  END
$$$$
