ZINC000000000186      none
 OpenBabel11202420153D

 32 34  0  0  1  0  0  0  0  0999 V2000
   33.7032   34.9241   55.6034 C   0  0  0  0  0  0  0  0  0  0  0  0
   32.6983   35.8447   56.0334 O   0  0  0  0  0  0  0  0  0  0  0  0
   33.1037   37.1098   56.3242 C   0  0  0  0  0  0  0  0  0  0  0  0
   33.7097   37.8830   55.3439 C   0  0  0  0  0  0  0  0  0  0  0  0
   34.1221   39.1766   55.6448 C   0  0  0  0  0  0  0  0  0  0  0  0
   33.9254   39.6800   56.9200 C   0  0  0  0  0  0  0  0  0  0  0  0
   33.3216   38.9044   57.8978 C   0  0  0  0  0  0  0  0  0  0  0  0
   32.9084   37.6223   57.6028 C   0  0  0  0  0  0  0  0  0  0  0  0
   32.2426   36.7453   58.6309 C   0  0  1  0  0  0  0  0  0  0  0  0
   31.1689   36.7244   58.4448 H   0  0  0  0  0  0  0  0  0  0  0  0
   32.7650   35.4192   58.5281 O   0  0  0  0  0  0  0  0  0  0  0  0
   32.4896   37.2594   59.9817 N   0  0  0  0  0  0  0  0  0  0  0  0
   31.7669   36.4681   60.9865 C   0  0  0  0  0  0  0  0  0  0  0  0
   32.1163   38.6807   60.0616 C   0  0  0  0  0  0  0  0  0  0  0  0
   33.1404   39.4965   59.2722 C   0  0  0  0  0  0  0  0  0  0  0  0
   34.6820   39.7274   54.5284 O   0  0  0  0  0  0  0  0  0  0  0  0
   34.9783   38.6181   53.6593 C   0  0  0  0  0  0  0  0  0  0  0  0
   34.0113   37.6206   54.0377 O   0  0  0  0  0  0  0  0  0  0  0  0
   34.1726   35.2977   54.6934 H   0  0  0  0  0  0  0  0  0  0  0  0
   34.4567   34.8181   56.3838 H   0  0  0  0  0  0  0  0  0  0  0  0
   33.2465   33.9545   55.4050 H   0  0  0  0  0  0  0  0  0  0  0  0
   34.2452   40.6844   57.1547 H   0  0  0  0  0  0  0  0  0  0  0  0
   32.6382   35.0127   57.6599 H   0  0  0  0  0  0  0  0  0  0  0  0
   32.1001   35.4313   60.9408 H   0  0  0  0  0  0  0  0  0  0  0  0
   31.9677   36.8708   61.9793 H   0  0  0  0  0  0  0  0  0  0  0  0
   30.6968   36.5150   60.7849 H   0  0  0  0  0  0  0  0  0  0  0  0
   31.1248   38.8236   59.6320 H   0  0  0  0  0  0  0  0  0  0  0  0
   32.1170   39.0015   61.1032 H   0  0  0  0  0  0  0  0  0  0  0  0
   34.0945   39.4867   59.7992 H   0  0  0  0  0  0  0  0  0  0  0  0
   32.7886   40.5241   59.1800 H   0  0  0  0  0  0  0  0  0  0  0  0
   35.9912   38.2552   53.8330 H   0  0  0  0  0  0  0  0  0  0  0  0
   34.8461   38.9033   52.6155 H   0  0  0  0  0  0  0  0  0  0  0  0
  1  2  1  0  0  0  0
  1 19  1  0  0  0  0
  1 20  1  0  0  0  0
  1 21  1  0  0  0  0
  2  3  1  0  0  0  0
  3  8  2  0  0  0  0
  3  4  1  0  0  0  0
  4 18  1  0  0  0  0
  4  5  2  0  0  0  0
  5  6  1  0  0  0  0
  5 16  1  0  0  0  0
  6  7  2  0  0  0  0
  6 22  1  0  0  0  0
  7 15  1  0  0  0  0
  7  8  1  0  0  0  0
  8  9  1  0  0  0  0
  9 10  1  6  0  0  0
  9 11  1  0  0  0  0
  9 12  1  0  0  0  0
 11 23  1  0  0  0  0
 12 13  1  0  0  0  0
 12 14  1  0  0  0  0
 13 24  1  0  0  0  0
 13 25  1  0  0  0  0
 13 26  1  0  0  0  0
 14 15  1  0  0  0  0
 14 27  1  0  0  0  0
 14 28  1  0  0  0  0
 15 29  1  0  0  0  0
 15 30  1  0  0  0  0
 16 17  1  0  0  0  0
 17 18  1  0  0  0  0
 17 31  1  0  0  0  0
 17 32  1  0  0  0  0
M  END
$$$$
