ZINC000000040666      none
 OpenBabel11202420153D

 29 30  0  0  0  0  0  0  0  0999 V2000
   31.4626   35.7756   61.4031 C   0  0  0  0  0  0  0  0  0  0  0  0
   31.9739   36.5122   60.2445 N   0  0  0  0  0  0  0  0  0  0  0  0
   32.2209   37.8396   60.2209 C   0  0  0  0  0  0  0  0  0  0  0  0
   32.6852   38.1390   58.9851 C   0  0  0  0  0  0  0  0  0  0  0  0
   32.6894   36.9147   58.2757 C   0  0  0  0  0  0  0  0  0  0  0  0
   33.1104   36.7121   56.8744 C   0  0  0  0  0  0  0  0  0  0  0  0
   33.5021   37.6553   56.2151 O   0  0  0  0  0  0  0  0  0  0  0  0
   33.0604   35.4816   56.3269 N   0  0  0  0  0  0  0  0  0  0  0  0
   33.4781   35.2807   54.9371 C   0  0  0  0  0  0  0  0  0  0  0  0
   34.0309   33.8881   54.7752 C   0  0  0  0  0  0  0  0  0  0  0  0
   33.9167   33.2361   53.5615 C   0  0  0  0  0  0  0  0  0  0  0  0
   34.4243   31.9588   53.4128 C   0  0  0  0  0  0  0  0  0  0  0  0
   35.0446   31.3332   54.4780 C   0  0  0  0  0  0  0  0  0  0  0  0
   35.1590   31.9855   55.6913 C   0  0  0  0  0  0  0  0  0  0  0  0
   34.6524   33.2630   55.8399 C   0  0  0  0  0  0  0  0  0  0  0  0
   32.2515   35.9883   59.1048 N   0  0  0  0  0  0  0  0  0  0  0  0
   32.2987   35.4189   62.0046 H   0  0  0  0  0  0  0  0  0  0  0  0
   30.8368   36.4344   62.0052 H   0  0  0  0  0  0  0  0  0  0  0  0
   30.8721   34.9256   61.0614 H   0  0  0  0  0  0  0  0  0  0  0  0
   32.0792   38.5322   61.0373 H   0  0  0  0  0  0  0  0  0  0  0  0
   32.9862   39.1087   58.6171 H   0  0  0  0  0  0  0  0  0  0  0  0
   32.7479   34.7290   56.8531 H   0  0  0  0  0  0  0  0  0  0  0  0
   34.2471   36.0090   54.6799 H   0  0  0  0  0  0  0  0  0  0  0  0
   32.6200   35.4100   54.2777 H   0  0  0  0  0  0  0  0  0  0  0  0
   33.4272   33.7227   52.7310 H   0  0  0  0  0  0  0  0  0  0  0  0
   34.3349   31.4493   52.4648 H   0  0  0  0  0  0  0  0  0  0  0  0
   35.4410   30.3353   54.3617 H   0  0  0  0  0  0  0  0  0  0  0  0
   35.6448   31.4971   56.5232 H   0  0  0  0  0  0  0  0  0  0  0  0
   34.7419   33.7725   56.7879 H   0  0  0  0  0  0  0  0  0  0  0  0
  1  2  1  0  0  0  0
  1 17  1  0  0  0  0
  1 18  1  0  0  0  0
  1 19  1  0  0  0  0
  2 16  1  0  0  0  0
  2  3  1  0  0  0  0
  3  4  2  0  0  0  0
  3 20  1  0  0  0  0
  4  5  1  0  0  0  0
  4 21  1  0  0  0  0
  5  6  1  0  0  0  0
  5 16  2  0  0  0  0
  6  7  2  0  0  0  0
  6  8  1  0  0  0  0
  8  9  1  0  0  0  0
  8 22  1  0  0  0  0
  9 10  1  0  0  0  0
  9 23  1  0  0  0  0
  9 24  1  0  0  0  0
 10 15  2  0  0  0  0
 10 11  1  0  0  0  0
 11 12  2  0  0  0  0
 11 25  1  0  0  0  0
 12 13  1  0  0  0  0
 12 26  1  0  0  0  0
 13 14  2  0  0  0  0
 13 27  1  0  0  0  0
 14 15  1  0  0  0  0
 14 28  1  0  0  0  0
 15 29  1  0  0  0  0
M  END
$$$$
