ZINC000000002035      none
 OpenBabel11202420153D

 40 41  0  0  0  0  0  0  0  0999 V2000
   30.8071   37.8073   60.4634 C   0  0  0  0  0  0  0  0  0  0  0  0
   32.1396   37.3112   60.3209 O   0  0  0  0  0  0  0  0  0  0  0  0
   32.4944   36.8374   59.0964 C   0  0  0  0  0  0  0  0  0  0  0  0
   32.3016   35.5033   58.7895 C   0  0  0  0  0  0  0  0  0  0  0  0
   32.6661   35.0174   57.5320 C   0  0  0  0  0  0  0  0  0  0  0  0
   32.4614   33.5913   57.2016 C   0  0  0  0  0  0  0  0  0  0  0  0
   31.5460   32.9724   57.7150 O   0  0  0  0  0  0  0  0  0  0  0  0
   33.3237   32.9474   56.2860 C   0  0  0  0  0  0  0  0  0  0  0  0
   33.0287   32.9451   54.9671 C   0  0  0  0  0  0  0  0  0  0  0  0
   33.8621   32.3228   54.0821 N   0  0  0  0  0  0  0  0  0  0  0  0
   33.6947   32.2171   52.6257 C   0  0  0  0  0  0  0  0  0  0  0  0
   34.8732   31.4417   52.0987 C   0  0  0  0  0  0  0  0  0  0  0  0
   35.6614   31.1017   53.0802 C   0  0  0  0  0  0  0  0  0  0  0  0
   35.1119   31.6117   54.3862 C   0  0  0  0  0  0  0  0  0  0  0  0
   33.2297   35.8798   56.5891 C   0  0  0  0  0  0  0  0  0  0  0  0
   33.4163   37.2142   56.8987 C   0  0  0  0  0  0  0  0  0  0  0  0
   33.9611   38.0554   55.9794 O   0  0  0  0  0  0  0  0  0  0  0  0
   34.3114   37.4934   54.7131 C   0  0  0  0  0  0  0  0  0  0  0  0
   33.0520   37.6963   58.1530 C   0  0  0  0  0  0  0  0  0  0  0  0
   33.2415   39.0073   58.4573 O   0  0  0  0  0  0  0  0  0  0  0  0
   32.5677   39.9670   57.6407 C   0  0  0  0  0  0  0  0  0  0  0  0
   30.6521   38.6361   59.7725 H   0  0  0  0  0  0  0  0  0  0  0  0
   30.0970   37.0109   60.2405 H   0  0  0  0  0  0  0  0  0  0  0  0
   30.6557   38.1535   61.4858 H   0  0  0  0  0  0  0  0  0  0  0  0
   31.8690   34.8375   59.5215 H   0  0  0  0  0  0  0  0  0  0  0  0
   34.2184   32.4570   56.6401 H   0  0  0  0  0  0  0  0  0  0  0  0
   32.1339   33.4355   54.6128 H   0  0  0  0  0  0  0  0  0  0  0  0
   32.7686   31.6903   52.3957 H   0  0  0  0  0  0  0  0  0  0  0  0
   33.6787   33.2122   52.1809 H   0  0  0  0  0  0  0  0  0  0  0  0
   35.0393   31.1991   51.0595 H   0  0  0  0  0  0  0  0  0  0  0  0
   36.5755   30.5367   52.9722 H   0  0  0  0  0  0  0  0  0  0  0  0
   35.8251   32.2952   54.8473 H   0  0  0  0  0  0  0  0  0  0  0  0
   34.9099   30.7754   55.0556 H   0  0  0  0  0  0  0  0  0  0  0  0
   33.5161   35.5054   55.6173 H   0  0  0  0  0  0  0  0  0  0  0  0
   35.0466   36.7018   54.8577 H   0  0  0  0  0  0  0  0  0  0  0  0
   33.4206   37.0800   54.2402 H   0  0  0  0  0  0  0  0  0  0  0  0
   34.7341   38.2698   54.0755 H   0  0  0  0  0  0  0  0  0  0  0  0
   32.8042   40.9719   57.9907 H   0  0  0  0  0  0  0  0  0  0  0  0
   32.8935   39.8565   56.6064 H   0  0  0  0  0  0  0  0  0  0  0  0
   31.4916   39.8046   57.7019 H   0  0  0  0  0  0  0  0  0  0  0  0
  1  2  1  0  0  0  0
  1 22  1  0  0  0  0
  1 23  1  0  0  0  0
  1 24  1  0  0  0  0
  2  3  1  0  0  0  0
  3 19  2  0  0  0  0
  3  4  1  0  0  0  0
  4  5  2  0  0  0  0
  4 25  1  0  0  0  0
  5  6  1  0  0  0  0
  5 15  1  0  0  0  0
  6  7  2  0  0  0  0
  6  8  1  0  0  0  0
  8  9  2  0  0  0  0
  8 26  1  0  0  0  0
  9 10  1  0  0  0  0
  9 27  1  0  0  0  0
 10 14  1  0  0  0  0
 10 11  1  0  0  0  0
 11 12  1  0  0  0  0
 11 28  1  0  0  0  0
 11 29  1  0  0  0  0
 12 13  2  0  0  0  0
 12 30  1  0  0  0  0
 13 14  1  0  0  0  0
 13 31  1  0  0  0  0
 14 32  1  0  0  0  0
 14 33  1  0  0  0  0
 15 16  2  0  0  0  0
 15 34  1  0  0  0  0
 16 17  1  0  0  0  0
 16 19  1  0  0  0  0
 17 18  1  0  0  0  0
 18 35  1  0  0  0  0
 18 36  1  0  0  0  0
 18 37  1  0  0  0  0
 19 20  1  0  0  0  0
 20 21  1  0  0  0  0
 21 38  1  0  0  0  0
 21 39  1  0  0  0  0
 21 40  1  0  0  0  0
M  END
$$$$
