ZINC000000041153      none
 OpenBabel11202420153D

 32 34  0  0  0  0  0  0  0  0999 V2000
   29.4306   35.9114   59.8849 O   0  0  0  0  0  0  0  0  0  0  0  0
   29.1308   36.4786   60.9203 N   0  0  0  0  0  0  0  0  0  0  0  0
   27.9805   36.8308   61.1108 O   0  0  0  0  0  0  0  0  0  0  0  0
   30.1644   36.7398   61.9470 C   0  0  0  0  0  0  0  0  0  0  0  0
   29.8238   37.3897   63.1191 C   0  0  0  0  0  0  0  0  0  0  0  0
   30.7882   37.6298   64.0837 C   0  0  0  0  0  0  0  0  0  0  0  0
   32.1021   37.2203   63.8672 C   0  0  0  0  0  0  0  0  0  0  0  0
   32.4373   36.5757   62.6881 C   0  0  0  0  0  0  0  0  0  0  0  0
   31.4692   36.3394   61.7293 C   0  0  0  0  0  0  0  0  0  0  0  0
   31.8364   35.6373   60.4474 C   0  0  0  0  0  0  0  0  0  0  0  0
   32.2311   36.6285   59.4435 N   0  0  0  0  0  0  0  0  0  0  0  0
   32.6175   36.2130   58.1637 C   0  0  0  0  0  0  0  0  0  0  0  0
   32.6325   34.8619   57.8466 C   0  0  0  0  0  0  0  0  0  0  0  0
   33.0087   34.4539   56.5812 C   0  0  0  0  0  0  0  0  0  0  0  0
   33.3822   35.3907   55.6324 C   0  0  0  0  0  0  0  0  0  0  0  0
   33.7549   34.9883   54.3978 F   0  0  0  0  0  0  0  0  0  0  0  0
   33.3741   36.7390   55.9468 C   0  0  0  0  0  0  0  0  0  0  0  0
   32.9924   37.1529   57.2100 C   0  0  0  0  0  0  0  0  0  0  0  0
   32.9842   38.4684   57.5171 F   0  0  0  0  0  0  0  0  0  0  0  0
   32.8519   37.5682   64.9535 O   0  0  0  0  0  0  0  0  0  0  0  0
   32.0745   38.5546   65.6575 C   0  0  0  0  0  0  0  0  0  0  0  0
   30.7155   38.2341   65.3056 O   0  0  0  0  0  0  0  0  0  0  0  0
   28.8046   37.7060   63.2844 H   0  0  0  0  0  0  0  0  0  0  0  0
   33.4550   36.2571   62.5175 H   0  0  0  0  0  0  0  0  0  0  0  0
   32.6669   34.9558   60.6313 H   0  0  0  0  0  0  0  0  0  0  0  0
   30.9775   35.0734   60.0831 H   0  0  0  0  0  0  0  0  0  0  0  0
   32.2248   37.5728   59.6655 H   0  0  0  0  0  0  0  0  0  0  0  0
   32.3456   34.1299   58.5871 H   0  0  0  0  0  0  0  0  0  0  0  0
   33.0160   33.4028   56.3333 H   0  0  0  0  0  0  0  0  0  0  0  0
   33.6654   37.4681   55.2051 H   0  0  0  0  0  0  0  0  0  0  0  0
   32.3314   39.5582   65.3183 H   0  0  0  0  0  0  0  0  0  0  0  0
   32.2232   38.4630   66.7334 H   0  0  0  0  0  0  0  0  0  0  0  0
  1  2  2  0  0  0  0
  2  3  2  0  0  0  0
  2  4  1  0  0  0  0
  4  9  2  0  0  0  0
  4  5  1  0  0  0  0
  5  6  2  0  0  0  0
  5 23  1  0  0  0  0
  6 22  1  0  0  0  0
  6  7  1  0  0  0  0
  7  8  2  0  0  0  0
  7 20  1  0  0  0  0
  8  9  1  0  0  0  0
  8 24  1  0  0  0  0
  9 10  1  0  0  0  0
 10 11  1  0  0  0  0
 10 25  1  0  0  0  0
 10 26  1  0  0  0  0
 11 12  1  0  0  0  0
 11 27  1  0  0  0  0
 12 18  2  0  0  0  0
 12 13  1  0  0  0  0
 13 14  2  0  0  0  0
 13 28  1  0  0  0  0
 14 15  1  0  0  0  0
 14 29  1  0  0  0  0
 15 16  1  0  0  0  0
 15 17  2  0  0  0  0
 17 18  1  0  0  0  0
 17 30  1  0  0  0  0
 18 19  1  0  0  0  0
 20 21  1  0  0  0  0
 21 22  1  0  0  0  0
 21 31  1  0  0  0  0
 21 32  1  0  0  0  0
M  END
$$$$
