ZINC000000021194      none
 OpenBabel11202420153D

 31 33  0  0  0  0  0  0  0  0999 V2000
   33.2048   40.7909   58.9790 N   0  0  0  0  0  0  0  0  0  0  0  0
   33.2293   39.5750   58.3142 C   0  0  0  0  0  0  0  0  0  0  0  0
   32.8474   38.4825   58.9629 N   0  0  0  0  0  0  0  0  0  0  0  0
   32.8533   37.2939   58.3674 C   0  0  0  0  0  0  0  0  0  0  0  0
   32.4614   36.1830   59.0382 O   0  0  0  0  0  0  0  0  0  0  0  0
   31.1241   36.1670   59.5414 C   0  0  0  0  0  0  0  0  0  0  0  0
   31.1054   36.7376   60.9361 C   0  0  0  0  0  0  0  0  0  0  0  0
   31.2734   35.9041   62.0261 C   0  0  0  0  0  0  0  0  0  0  0  0
   31.2611   36.4282   63.3053 C   0  0  0  0  0  0  0  0  0  0  0  0
   31.0701   37.7841   63.4948 C   0  0  0  0  0  0  0  0  0  0  0  0
   30.8967   38.6167   62.4051 C   0  0  0  0  0  0  0  0  0  0  0  0
   30.9143   38.0935   61.1257 C   0  0  0  0  0  0  0  0  0  0  0  0
   33.2645   37.2131   57.0409 C   0  0  0  0  0  0  0  0  0  0  0  0
   33.4064   36.1862   56.1196 N   0  0  0  0  0  0  0  0  0  0  0  0
   33.2105   35.2476   56.2664 H   0  0  0  0  0  0  0  0  0  0  0  0
   33.8678   36.7481   54.9663 C   0  0  0  0  0  0  0  0  0  0  0  0
   34.1364   36.0619   53.8035 N   0  0  0  0  0  0  0  0  0  0  0  0
   34.0182   38.0421   55.1316 N   0  0  0  0  0  0  0  0  0  0  0  0
   33.6676   38.3879   56.3839 C   0  0  0  0  0  0  0  0  0  0  0  0
   33.6319   39.5437   57.0557 N   0  0  0  0  0  0  0  0  0  0  0  0
   33.4802   41.6001   58.5203 H   0  0  0  0  0  0  0  0  0  0  0  0
   32.9122   40.8328   59.9028 H   0  0  0  0  0  0  0  0  0  0  0  0
   30.4852   36.7680   58.8944 H   0  0  0  0  0  0  0  0  0  0  0  0
   30.7565   35.1410   59.5636 H   0  0  0  0  0  0  0  0  0  0  0  0
   31.4182   34.8442   61.8782 H   0  0  0  0  0  0  0  0  0  0  0  0
   31.3962   35.7776   64.1567 H   0  0  0  0  0  0  0  0  0  0  0  0
   31.0560   38.1928   64.4944 H   0  0  0  0  0  0  0  0  0  0  0  0
   30.7472   39.6760   62.5532 H   0  0  0  0  0  0  0  0  0  0  0  0
   30.7785   38.7439   60.2744 H   0  0  0  0  0  0  0  0  0  0  0  0
   33.9986   35.1025   53.7636 H   0  0  0  0  0  0  0  0  0  0  0  0
   34.4634   36.5376   53.0240 H   0  0  0  0  0  0  0  0  0  0  0  0
  1  2  1  0  0  0  0
  1 21  1  0  0  0  0
  1 22  1  0  0  0  0
  2 20  2  0  0  0  0
  2  3  1  0  0  0  0
  3  4  2  0  0  0  0
  4  5  1  0  0  0  0
  4 13  1  0  0  0  0
  5  6  1  0  0  0  0
  6  7  1  0  0  0  0
  6 23  1  0  0  0  0
  6 24  1  0  0  0  0
  7 12  2  0  0  0  0
  7  8  1  0  0  0  0
  8  9  2  0  0  0  0
  8 25  1  0  0  0  0
  9 10  1  0  0  0  0
  9 26  1  0  0  0  0
 10 11  2  0  0  0  0
 10 27  1  0  0  0  0
 11 12  1  0  0  0  0
 11 28  1  0  0  0  0
 12 29  1  0  0  0  0
 13 19  2  0  0  0  0
 13 14  1  0  0  0  0
 14 15  1  0  0  0  0
 14 16  1  0  0  0  0
 16 17  1  0  0  0  0
 16 18  2  0  0  0  0
 17 30  1  0  0  0  0
 17 31  1  0  0  0  0
 18 19  1  0  0  0  0
 19 20  1  0  0  0  0
M  END
$$$$
