ZINC000000007518      none
 OpenBabel11202420153D

 40 42  0  0  1  0  0  0  0  0999 V2000
   29.5062   41.2648   67.4668 C   0  0  0  0  0  0  0  0  0  0  0  0
   30.7630   40.4843   67.1796 C   0  0  0  0  0  0  0  0  0  0  0  0
   31.8612   40.6130   67.9017 C   0  0  0  0  0  0  0  0  0  0  0  0
   33.1386   39.5690   67.3074 S   0  0  0  0  0  0  0  0  0  0  0  0
   32.1167   38.9391   66.0228 C   0  0  0  0  0  0  0  0  0  0  0  0
   32.3669   38.0273   65.0561 N   0  0  0  0  0  0  0  0  0  0  0  0
   31.4636   37.6930   64.1872 C   0  0  0  0  0  0  0  0  0  0  0  0
   31.8080   36.6699   63.1355 C   0  0  2  0  0  0  0  0  0  0  0  0
   30.9094   36.1199   62.8558 H   0  0  0  0  0  0  0  0  0  0  0  0
   32.8491   35.6967   63.6923 C   0  0  0  0  0  0  0  0  0  0  0  0
   32.3534   37.3463   61.9561 N   0  0  0  0  0  0  0  0  0  0  0  0
   32.2134   36.7913   60.7359 C   0  0  0  0  0  0  0  0  0  0  0  0
   31.6339   35.7282   60.6140 O   0  0  0  0  0  0  0  0  0  0  0  0
   32.7585   37.4674   59.5571 C   0  0  0  0  0  0  0  0  0  0  0  0
   32.6185   36.9122   58.3366 C   0  0  0  0  0  0  0  0  0  0  0  0
   33.1667   37.5920   57.1515 C   0  0  0  0  0  0  0  0  0  0  0  0
   33.4509   38.9604   57.1950 C   0  0  0  0  0  0  0  0  0  0  0  0
   33.9695   39.5888   56.0824 C   0  0  0  0  0  0  0  0  0  0  0  0
   34.1975   38.8712   54.9212 C   0  0  0  0  0  0  0  0  0  0  0  0
   33.9134   37.5176   54.8686 C   0  0  0  0  0  0  0  0  0  0  0  0
   33.4003   36.8737   55.9746 C   0  0  0  0  0  0  0  0  0  0  0  0
   30.2347   38.2267   64.1934 O   0  0  0  0  0  0  0  0  0  0  0  0
   29.8892   39.1432   65.1163 C   0  0  0  0  0  0  0  0  0  0  0  0
   28.7707   39.6251   65.1254 O   0  0  0  0  0  0  0  0  0  0  0  0
   30.8604   39.5352   66.0898 C   0  0  0  0  0  0  0  0  0  0  0  0
   28.8802   40.7031   68.1602 H   0  0  0  0  0  0  0  0  0  0  0  0
   29.7683   42.2252   67.9104 H   0  0  0  0  0  0  0  0  0  0  0  0
   28.9609   41.4303   66.5376 H   0  0  0  0  0  0  0  0  0  0  0  0
   31.9602   41.2761   68.7484 H   0  0  0  0  0  0  0  0  0  0  0  0
   33.7476   36.2469   63.9721 H   0  0  0  0  0  0  0  0  0  0  0  0
   32.4433   35.1935   64.5699 H   0  0  0  0  0  0  0  0  0  0  0  0
   33.0981   34.9568   62.9317 H   0  0  0  0  0  0  0  0  0  0  0  0
   32.8153   38.1938   62.0533 H   0  0  0  0  0  0  0  0  0  0  0  0
   33.2727   38.4110   59.6653 H   0  0  0  0  0  0  0  0  0  0  0  0
   32.1044   35.9687   58.2284 H   0  0  0  0  0  0  0  0  0  0  0  0
   33.2689   39.5228   58.0989 H   0  0  0  0  0  0  0  0  0  0  0  0
   34.1940   40.6447   56.1159 H   0  0  0  0  0  0  0  0  0  0  0  0
   34.5995   39.3698   54.0517 H   0  0  0  0  0  0  0  0  0  0  0  0
   34.0944   36.9643   53.9589 H   0  0  0  0  0  0  0  0  0  0  0  0
   33.1798   35.8173   55.9323 H   0  0  0  0  0  0  0  0  0  0  0  0
  1  2  1  0  0  0  0
  1 26  1  0  0  0  0
  1 27  1  0  0  0  0
  1 28  1  0  0  0  0
  2 25  1  0  0  0  0
  2  3  2  0  0  0  0
  3  4  1  0  0  0  0
  3 29  1  0  0  0  0
  4  5  1  0  0  0  0
  5 25  2  0  0  0  0
  5  6  1  0  0  0  0
  6  7  2  0  0  0  0
  7  8  1  0  0  0  0
  7 22  1  0  0  0  0
  8  9  1  6  0  0  0
  8 10  1  0  0  0  0
  8 11  1  0  0  0  0
 10 30  1  0  0  0  0
 10 31  1  0  0  0  0
 10 32  1  0  0  0  0
 11 12  1  0  0  0  0
 11 33  1  0  0  0  0
 12 13  2  0  0  0  0
 12 14  1  0  0  0  0
 14 15  2  0  0  0  0
 14 34  1  0  0  0  0
 15 16  1  0  0  0  0
 15 35  1  0  0  0  0
 16 21  2  0  0  0  0
 16 17  1  0  0  0  0
 17 18  2  0  0  0  0
 17 36  1  0  0  0  0
 18 19  1  0  0  0  0
 18 37  1  0  0  0  0
 19 20  2  0  0  0  0
 19 38  1  0  0  0  0
 20 21  1  0  0  0  0
 20 39  1  0  0  0  0
 21 40  1  0  0  0  0
 22 23  1  0  0  0  0
 23 24  2  0  0  0  0
 23 25  1  0  0  0  0
M  END
$$$$
