ZINC000000018754      none
 OpenBabel11202420153D

 30 31  0  0  0  0  0  0  0  0999 V2000
   30.5446   35.5987   60.5442 C   0  0  0  0  0  0  0  0  0  0  0  0
   31.4311   36.5492   59.7814 C   0  0  0  0  0  0  0  0  0  0  0  0
   31.6709   37.8181   60.2764 C   0  0  0  0  0  0  0  0  0  0  0  0
   32.4831   38.6932   59.5794 C   0  0  0  0  0  0  0  0  0  0  0  0
   33.0538   38.3041   58.3830 C   0  0  0  0  0  0  0  0  0  0  0  0
   32.8193   37.0291   57.8860 C   0  0  0  0  0  0  0  0  0  0  0  0
   33.4004   36.6298   56.6773 N   0  0  0  0  0  0  0  0  0  0  0  0
   33.7060   35.3332   56.4723 C   0  0  0  0  0  0  0  0  0  0  0  0
   33.4767   34.5104   57.3377 O   0  0  0  0  0  0  0  0  0  0  0  0
   34.2657   34.9487   55.3081 N   0  0  0  0  0  0  0  0  0  0  0  0
   34.5831   33.6023   55.0954 C   0  0  0  0  0  0  0  0  0  0  0  0
   34.5544   33.0638   53.8113 C   0  0  0  0  0  0  0  0  0  0  0  0
   34.8818   31.7276   53.6506 C   0  0  0  0  0  0  0  0  0  0  0  0
   35.2124   30.9749   54.7624 C   0  0  0  0  0  0  0  0  0  0  0  0
   35.2250   31.5136   55.9659 N   0  0  0  0  0  0  0  0  0  0  0  0
   34.9258   32.7822   56.1621 C   0  0  0  0  0  0  0  0  0  0  0  0
   32.0028   36.1523   58.5886 C   0  0  0  0  0  0  0  0  0  0  0  0
   29.5123   35.7234   60.2176 H   0  0  0  0  0  0  0  0  0  0  0  0
   30.8640   34.5737   60.3559 H   0  0  0  0  0  0  0  0  0  0  0  0
   30.6166   35.8116   61.6108 H   0  0  0  0  0  0  0  0  0  0  0  0
   31.2230   38.1260   61.2097 H   0  0  0  0  0  0  0  0  0  0  0  0
   32.6682   39.6836   59.9684 H   0  0  0  0  0  0  0  0  0  0  0  0
   33.6849   38.9896   57.8370 H   0  0  0  0  0  0  0  0  0  0  0  0
   33.5833   37.2862   55.9869 H   0  0  0  0  0  0  0  0  0  0  0  0
   34.4486   35.6051   54.6177 H   0  0  0  0  0  0  0  0  0  0  0  0
   34.2873   33.6742   52.9611 H   0  0  0  0  0  0  0  0  0  0  0  0
   34.8744   31.2776   52.6689 H   0  0  0  0  0  0  0  0  0  0  0  0
   35.4643   29.9315   54.6434 H   0  0  0  0  0  0  0  0  0  0  0  0
   34.9468   33.1879   57.1629 H   0  0  0  0  0  0  0  0  0  0  0  0
   31.8154   35.1612   58.2028 H   0  0  0  0  0  0  0  0  0  0  0  0
  1  2  1  0  0  0  0
  1 18  1  0  0  0  0
  1 19  1  0  0  0  0
  1 20  1  0  0  0  0
  2 17  2  0  0  0  0
  2  3  1  0  0  0  0
  3  4  2  0  0  0  0
  3 21  1  0  0  0  0
  4  5  1  0  0  0  0
  4 22  1  0  0  0  0
  5  6  2  0  0  0  0
  5 23  1  0  0  0  0
  6  7  1  0  0  0  0
  6 17  1  0  0  0  0
  7  8  1  0  0  0  0
  7 24  1  0  0  0  0
  8  9  2  0  0  0  0
  8 10  1  0  0  0  0
 10 11  1  0  0  0  0
 10 25  1  0  0  0  0
 11 16  2  0  0  0  0
 11 12  1  0  0  0  0
 12 13  2  0  0  0  0
 12 26  1  0  0  0  0
 13 14  1  0  0  0  0
 13 27  1  0  0  0  0
 14 15  2  0  0  0  0
 14 28  1  0  0  0  0
 15 16  1  0  0  0  0
 16 29  1  0  0  0  0
 17 30  1  0  0  0  0
M  END
$$$$
