ZINC000000033120      none
 OpenBabel11202420153D

 24 26  0  0  0  0  0  0  0  0999 V2000
   30.4329   35.3650   62.0033 C   0  0  0  0  0  0  0  0  0  0  0  0
   31.0294   34.5328   60.8976 C   0  0  0  0  0  0  0  0  0  0  0  0
   31.0475   33.2277   60.8342 N   0  0  0  0  0  0  0  0  0  0  0  0
   31.6352   32.8476   59.7545 N   0  0  0  0  0  0  0  0  0  0  0  0
   32.0255   33.8982   59.0681 C   0  0  0  0  0  0  0  0  0  0  0  0
   32.6505   34.3512   57.9302 N   0  0  0  0  0  0  0  0  0  0  0  0
   33.0246   33.7984   57.2265 H   0  0  0  0  0  0  0  0  0  0  0  0
   32.6542   35.7267   57.9671 C   0  0  0  0  0  0  0  0  0  0  0  0
   33.2335   36.6122   56.9321 C   0  0  0  0  0  0  0  0  0  0  0  0
   33.1745   37.9976   57.0832 C   0  0  0  0  0  0  0  0  0  0  0  0
   33.7156   38.8181   56.1151 C   0  0  0  0  0  0  0  0  0  0  0  0
   34.3159   38.2687   54.9950 C   0  0  0  0  0  0  0  0  0  0  0  0
   35.0543   39.4001   53.6718 Br  0  0  0  0  0  0  0  0  0  0  0  0
   34.3726   36.8946   54.8373 C   0  0  0  0  0  0  0  0  0  0  0  0
   33.8399   36.0643   55.8017 C   0  0  0  0  0  0  0  0  0  0  0  0
   32.0601   36.1252   59.0586 N   0  0  0  0  0  0  0  0  0  0  0  0
   31.6496   35.0019   59.7793 N   0  0  0  0  0  0  0  0  0  0  0  0
   29.3883   35.5769   61.7754 H   0  0  0  0  0  0  0  0  0  0  0  0
   30.4957   34.8179   62.9441 H   0  0  0  0  0  0  0  0  0  0  0  0
   30.9831   36.3018   62.0904 H   0  0  0  0  0  0  0  0  0  0  0  0
   32.7064   38.4271   57.9566 H   0  0  0  0  0  0  0  0  0  0  0  0
   33.6707   39.8908   56.2310 H   0  0  0  0  0  0  0  0  0  0  0  0
   34.8382   36.4716   53.9593 H   0  0  0  0  0  0  0  0  0  0  0  0
   33.8884   34.9923   55.6796 H   0  0  0  0  0  0  0  0  0  0  0  0
  1  2  1  0  0  0  0
  1 18  1  0  0  0  0
  1 19  1  0  0  0  0
  1 20  1  0  0  0  0
  2 17  1  0  0  0  0
  2  3  2  0  0  0  0
  3  4  1  0  0  0  0
  4  5  2  0  0  0  0
  5 17  1  0  0  0  0
  5  6  1  0  0  0  0
  6  7  1  0  0  0  0
  6  8  1  0  0  0  0
  8  9  1  0  0  0  0
  8 16  2  0  0  0  0
  9 15  2  0  0  0  0
  9 10  1  0  0  0  0
 10 11  2  0  0  0  0
 10 21  1  0  0  0  0
 11 12  1  0  0  0  0
 11 22  1  0  0  0  0
 12 13  1  0  0  0  0
 12 14  2  0  0  0  0
 14 15  1  0  0  0  0
 14 23  1  0  0  0  0
 15 24  1  0  0  0  0
 16 17  1  0  0  0  0
M  END
$$$$
