ZINC000000034781      none
 OpenBabel11202420153D

 32 35  0  0  0  0  0  0  0  0999 V2000
   32.6161   34.3643   57.6151 C   0  0  0  0  0  0  0  0  0  0  0  0
   32.8003   35.8078   57.7842 N   0  0  0  0  0  0  0  0  0  0  0  0
   33.2440   36.6939   56.8084 C   0  0  0  0  0  0  0  0  0  0  0  0
   33.6213   36.5266   55.4827 C   0  0  0  0  0  0  0  0  0  0  0  0
   34.0271   37.6170   54.7401 C   0  0  0  0  0  0  0  0  0  0  0  0
   34.0588   38.8779   55.3117 C   0  0  0  0  0  0  0  0  0  0  0  0
   33.6852   39.0546   56.6289 C   0  0  0  0  0  0  0  0  0  0  0  0
   33.2760   37.9647   57.3844 C   0  0  0  0  0  0  0  0  0  0  0  0
   32.8502   37.8353   58.7056 N   0  0  0  0  0  0  0  0  0  0  0  0
   32.6014   38.5254   59.8675 C   0  0  0  0  0  0  0  0  0  0  0  0
   32.1787   37.6156   60.7812 C   0  0  0  0  0  0  0  0  0  0  0  0
   31.7961   37.9037   62.1852 C   0  0  0  0  0  0  0  0  0  0  0  0
   32.4801   37.2945   63.2357 C   0  0  0  0  0  0  0  0  0  0  0  0
   32.1229   37.5699   64.5400 C   0  0  0  0  0  0  0  0  0  0  0  0
   31.0814   38.4415   64.8053 C   0  0  0  0  0  0  0  0  0  0  0  0
   30.3955   39.0440   63.7668 C   0  0  0  0  0  0  0  0  0  0  0  0
   30.7475   38.7801   62.4586 C   0  0  0  0  0  0  0  0  0  0  0  0
   32.1618   36.4038   60.1877 N   0  0  0  0  0  0  0  0  0  0  0  0
   32.5634   36.5251   58.9406 C   0  0  0  0  0  0  0  0  0  0  0  0
   31.5998   34.1650   57.2754 H   0  0  0  0  0  0  0  0  0  0  0  0
   33.3258   33.9916   56.8764 H   0  0  0  0  0  0  0  0  0  0  0  0
   32.7859   33.8622   58.5675 H   0  0  0  0  0  0  0  0  0  0  0  0
   33.5971   35.5449   55.0332 H   0  0  0  0  0  0  0  0  0  0  0  0
   34.3208   37.4864   53.7091 H   0  0  0  0  0  0  0  0  0  0  0  0
   34.3768   39.7267   54.7244 H   0  0  0  0  0  0  0  0  0  0  0  0
   33.7111   40.0397   57.0706 H   0  0  0  0  0  0  0  0  0  0  0  0
   32.7214   39.5872   60.0241 H   0  0  0  0  0  0  0  0  0  0  0  0
   33.2908   36.6113   63.0296 H   0  0  0  0  0  0  0  0  0  0  0  0
   32.6551   37.1018   65.3549 H   0  0  0  0  0  0  0  0  0  0  0  0
   30.8028   38.6513   65.8274 H   0  0  0  0  0  0  0  0  0  0  0  0
   29.5831   39.7230   63.9797 H   0  0  0  0  0  0  0  0  0  0  0  0
   30.2117   39.2520   61.6483 H   0  0  0  0  0  0  0  0  0  0  0  0
  1  2  1  0  0  0  0
  1 20  1  0  0  0  0
  1 21  1  0  0  0  0
  1 22  1  0  0  0  0
  2 19  1  0  0  0  0
  2  3  1  0  0  0  0
  3  8  2  0  0  0  0
  3  4  1  0  0  0  0
  4  5  2  0  0  0  0
  4 23  1  0  0  0  0
  5  6  1  0  0  0  0
  5 24  1  0  0  0  0
  6  7  2  0  0  0  0
  6 25  1  0  0  0  0
  7  8  1  0  0  0  0
  7 26  1  0  0  0  0
  8  9  1  0  0  0  0
  9 19  1  0  0  0  0
  9 10  1  0  0  0  0
 10 11  2  0  0  0  0
 10 27  1  0  0  0  0
 11 12  1  0  0  0  0
 11 18  1  0  0  0  0
 12 17  2  0  0  0  0
 12 13  1  0  0  0  0
 13 14  2  0  0  0  0
 13 28  1  0  0  0  0
 14 15  1  0  0  0  0
 14 29  1  0  0  0  0
 15 16  2  0  0  0  0
 15 30  1  0  0  0  0
 16 17  1  0  0  0  0
 16 31  1  0  0  0  0
 17 32  1  0  0  0  0
 18 19  2  0  0  0  0
M  END
$$$$
