ZINC000000050129      none
 OpenBabel11202420153D

 40 43  0  0  0  0  0  0  0  0999 V2000
   28.7215   37.0042   66.0953 O   0  0  0  0  0  0  0  0  0  0  0  0
   29.7409   36.9014   65.4465 C   0  0  0  0  0  0  0  0  0  0  0  0
   29.6852   36.9574   63.9417 C   0  0  0  0  0  0  0  0  0  0  0  0
   30.3309   35.4116   63.2561 S   0  0  0  0  0  0  0  0  0  0  0  0
   30.9893   36.0038   61.7329 C   0  0  0  0  0  0  0  0  0  0  0  0
   31.0211   35.1952   60.6781 N   0  0  0  0  0  0  0  0  0  0  0  0
   31.4930   35.5844   59.5434 N   0  0  0  0  0  0  0  0  0  0  0  0
   31.9619   36.8162   59.4061 C   0  0  0  0  0  0  0  0  0  0  0  0
   31.9394   37.6933   60.5097 C   0  0  0  0  0  0  0  0  0  0  0  0
   31.4433   37.2479   61.6604 N   0  0  0  0  0  0  0  0  0  0  0  0
   32.4728   38.8969   60.1204 N   0  0  0  0  0  0  0  0  0  0  0  0
   32.5711   39.6712   60.6963 H   0  0  0  0  0  0  0  0  0  0  0  0
   32.8510   38.8490   58.7884 C   0  0  0  0  0  0  0  0  0  0  0  0
   33.4290   39.7925   57.9454 C   0  0  0  0  0  0  0  0  0  0  0  0
   33.7062   39.4692   56.6343 C   0  0  0  0  0  0  0  0  0  0  0  0
   33.4131   38.2068   56.1424 C   0  0  0  0  0  0  0  0  0  0  0  0
   32.8402   37.2583   56.9621 C   0  0  0  0  0  0  0  0  0  0  0  0
   32.5552   37.5714   58.2892 C   0  0  0  0  0  0  0  0  0  0  0  0
   30.9238   36.7372   66.0714 N   0  0  0  0  0  0  0  0  0  0  0  0
   32.1665   36.6050   65.2987 C   0  0  0  0  0  0  0  0  0  0  0  0
   33.1722   37.6482   65.8089 C   0  0  0  0  0  0  0  0  0  0  0  0
   33.3509   37.4800   67.3196 C   0  0  0  0  0  0  0  0  0  0  0  0
   32.0125   37.7176   68.0228 C   0  0  0  0  0  0  0  0  0  0  0  0
   30.9943   36.6808   67.5379 C   0  0  0  0  0  0  0  0  0  0  0  0
   30.2889   37.7924   63.5865 H   0  0  0  0  0  0  0  0  0  0  0  0
   28.6523   37.0936   63.6210 H   0  0  0  0  0  0  0  0  0  0  0  0
   33.6611   40.7791   58.3185 H   0  0  0  0  0  0  0  0  0  0  0  0
   34.1554   40.2060   55.9848 H   0  0  0  0  0  0  0  0  0  0  0  0
   33.6346   37.9654   55.1133 H   0  0  0  0  0  0  0  0  0  0  0  0
   32.6127   36.2754   56.5767 H   0  0  0  0  0  0  0  0  0  0  0  0
   32.5750   35.6034   65.4326 H   0  0  0  0  0  0  0  0  0  0  0  0
   31.9606   36.7799   64.2428 H   0  0  0  0  0  0  0  0  0  0  0  0
   32.8003   38.6503   65.5959 H   0  0  0  0  0  0  0  0  0  0  0  0
   34.1307   37.5018   65.3108 H   0  0  0  0  0  0  0  0  0  0  0  0
   34.0840   38.2010   67.6811 H   0  0  0  0  0  0  0  0  0  0  0  0
   33.6993   36.4696   67.5338 H   0  0  0  0  0  0  0  0  0  0  0  0
   31.6514   38.7191   67.7888 H   0  0  0  0  0  0  0  0  0  0  0  0
   32.1455   37.6206   69.1003 H   0  0  0  0  0  0  0  0  0  0  0  0
   30.0147   36.9057   67.9597 H   0  0  0  0  0  0  0  0  0  0  0  0
   31.3092   35.6853   67.8505 H   0  0  0  0  0  0  0  0  0  0  0  0
  1  2  2  0  0  0  0
  2  3  1  0  0  0  0
  2 19  1  0  0  0  0
  3  4  1  0  0  0  0
  3 25  1  0  0  0  0
  3 26  1  0  0  0  0
  4  5  1  0  0  0  0
  5 10  2  0  0  0  0
  5  6  1  0  0  0  0
  6  7  2  0  0  0  0
  7  8  1  0  0  0  0
  8 18  1  0  0  0  0
  8  9  2  0  0  0  0
  9 10  1  0  0  0  0
  9 11  1  0  0  0  0
 11 12  1  0  0  0  0
 11 13  1  0  0  0  0
 13 18  2  0  0  0  0
 13 14  1  0  0  0  0
 14 15  2  0  0  0  0
 14 27  1  0  0  0  0
 15 16  1  0  0  0  0
 15 28  1  0  0  0  0
 16 17  2  0  0  0  0
 16 29  1  0  0  0  0
 17 18  1  0  0  0  0
 17 30  1  0  0  0  0
 19 24  1  0  0  0  0
 19 20  1  0  0  0  0
 20 21  1  0  0  0  0
 20 31  1  0  0  0  0
 20 32  1  0  0  0  0
 21 22  1  0  0  0  0
 21 33  1  0  0  0  0
 21 34  1  0  0  0  0
 22 23  1  0  0  0  0
 22 35  1  0  0  0  0
 22 36  1  0  0  0  0
 23 24  1  0  0  0  0
 23 37  1  0  0  0  0
 23 38  1  0  0  0  0
 24 39  1  0  0  0  0
 24 40  1  0  0  0  0
M  END
$$$$
