ZINC000000001749      none
 OpenBabel11202420153D

 39 41  0  0  0  0  0  0  0  0999 V2000
   29.1574   36.4065   60.6447 C   0  0  0  0  0  0  0  0  0  0  0  0
   29.9417   36.3203   61.9286 C   0  0  0  0  0  0  0  0  0  0  0  0
   29.6539   35.5248   62.9789 C   0  0  0  0  0  0  0  0  0  0  0  0
   30.6312   35.7600   63.9661 C   0  0  0  0  0  0  0  0  0  0  0  0
   31.4824   36.6856   63.4792 C   0  0  0  0  0  0  0  0  0  0  0  0
   32.6862   37.2421   64.1948 C   0  0  0  0  0  0  0  0  0  0  0  0
   31.0663   37.0307   62.2275 N   0  0  0  0  0  0  0  0  0  0  0  0
   31.6882   37.9654   61.3893 N   0  0  0  0  0  0  0  0  0  0  0  0
   32.1660   37.5722   60.1406 C   0  0  0  0  0  0  0  0  0  0  0  0
   32.7856   38.5021   59.3042 C   0  0  0  0  0  0  0  0  0  0  0  0
   33.2485   38.0634   58.0764 C   0  0  0  0  0  0  0  0  0  0  0  0
   33.0568   36.7207   57.7465 C   0  0  0  0  0  0  0  0  0  0  0  0
   33.5006   36.2330   56.5188 N   0  0  0  0  0  0  0  0  0  0  0  0
   32.9199   36.9991   55.4064 C   0  0  0  0  0  0  0  0  0  0  0  0
   33.4778   36.4704   54.0825 C   0  0  0  0  0  0  0  0  0  0  0  0
   33.2007   35.0711   53.9791 O   0  0  0  0  0  0  0  0  0  0  0  0
   33.7530   34.2945   55.0453 C   0  0  0  0  0  0  0  0  0  0  0  0
   33.1978   34.8012   56.3792 C   0  0  0  0  0  0  0  0  0  0  0  0
   32.4576   35.9110   58.6040 N   0  0  0  0  0  0  0  0  0  0  0  0
   32.0331   36.3169   59.7451 N   0  0  0  0  0  0  0  0  0  0  0  0
   29.4817   35.6169   59.9669 H   0  0  0  0  0  0  0  0  0  0  0  0
   28.0953   36.2876   60.8591 H   0  0  0  0  0  0  0  0  0  0  0  0
   29.3277   37.3773   60.1794 H   0  0  0  0  0  0  0  0  0  0  0  0
   28.8239   34.8380   63.0520 H   0  0  0  0  0  0  0  0  0  0  0  0
   30.6886   35.2856   64.9346 H   0  0  0  0  0  0  0  0  0  0  0  0
   32.3941   38.1229   64.7667 H   0  0  0  0  0  0  0  0  0  0  0  0
   33.0885   36.4872   64.8703 H   0  0  0  0  0  0  0  0  0  0  0  0
   33.4471   37.5189   63.4649 H   0  0  0  0  0  0  0  0  0  0  0  0
   31.7862   38.8861   61.6781 H   0  0  0  0  0  0  0  0  0  0  0  0
   32.9041   39.5318   59.6081 H   0  0  0  0  0  0  0  0  0  0  0  0
   33.7395   38.7398   57.3926 H   0  0  0  0  0  0  0  0  0  0  0  0
   33.1784   38.0523   55.5158 H   0  0  0  0  0  0  0  0  0  0  0  0
   31.8355   36.8878   55.4150 H   0  0  0  0  0  0  0  0  0  0  0  0
   33.0064   36.9970   53.2527 H   0  0  0  0  0  0  0  0  0  0  0  0
   34.5553   36.6320   54.0512 H   0  0  0  0  0  0  0  0  0  0  0  0
   33.4808   33.2475   54.9119 H   0  0  0  0  0  0  0  0  0  0  0  0
   34.8387   34.3916   55.0419 H   0  0  0  0  0  0  0  0  0  0  0  0
   32.1181   34.6540   56.4034 H   0  0  0  0  0  0  0  0  0  0  0  0
   33.6589   34.2495   57.1984 H   0  0  0  0  0  0  0  0  0  0  0  0
  1  2  1  0  0  0  0
  1 21  1  0  0  0  0
  1 22  1  0  0  0  0
  1 23  1  0  0  0  0
  2  7  1  0  0  0  0
  2  3  2  0  0  0  0
  3  4  1  0  0  0  0
  3 24  1  0  0  0  0
  4  5  2  0  0  0  0
  4 25  1  0  0  0  0
  5  6  1  0  0  0  0
  5  7  1  0  0  0  0
  6 26  1  0  0  0  0
  6 27  1  0  0  0  0
  6 28  1  0  0  0  0
  7  8  1  0  0  0  0
  8  9  1  0  0  0  0
  8 29  1  0  0  0  0
  9 20  2  0  0  0  0
  9 10  1  0  0  0  0
 10 11  2  0  0  0  0
 10 30  1  0  0  0  0
 11 12  1  0  0  0  0
 11 31  1  0  0  0  0
 12 13  1  0  0  0  0
 12 19  2  0  0  0  0
 13 18  1  0  0  0  0
 13 14  1  0  0  0  0
 14 15  1  0  0  0  0
 14 32  1  0  0  0  0
 14 33  1  0  0  0  0
 15 16  1  0  0  0  0
 15 34  1  0  0  0  0
 15 35  1  0  0  0  0
 16 17  1  0  0  0  0
 17 18  1  0  0  0  0
 17 36  1  0  0  0  0
 17 37  1  0  0  0  0
 18 38  1  0  0  0  0
 18 39  1  0  0  0  0
 19 20  1  0  0  0  0
M  END
$$$$
