ZINC000000039335      none
 OpenBabel11202420153D

 35 36  0  0  0  0  0  0  0  0999 V2000
   31.3300   33.2256   62.1520 C   0  0  0  0  0  0  0  0  0  0  0  0
   31.0535   34.5670   62.7805 C   0  0  0  0  0  0  0  0  0  0  0  0
   30.7504   34.7891   64.0313 N   0  0  0  0  0  0  0  0  0  0  0  0
   30.5748   36.0481   64.2220 N   0  0  0  0  0  0  0  0  0  0  0  0
   30.7565   36.6968   63.1032 C   0  0  0  0  0  0  0  0  0  0  0  0
   30.6433   38.1864   62.9047 C   0  0  0  0  0  0  0  0  0  0  0  0
   31.0674   35.7749   62.1484 N   0  0  0  0  0  0  0  0  0  0  0  0
   31.3444   36.0183   60.7968 N   0  0  0  0  0  0  0  0  0  0  0  0
   32.1515   35.2352   60.1484 C   0  0  0  0  0  0  0  0  0  0  0  0
   32.4430   35.4913   58.7266 C   0  0  0  0  0  0  0  0  0  0  0  0
   32.7526   34.4294   57.8724 C   0  0  0  0  0  0  0  0  0  0  0  0
   33.0207   34.6732   56.5431 C   0  0  0  0  0  0  0  0  0  0  0  0
   32.9925   35.9730   56.0536 C   0  0  0  0  0  0  0  0  0  0  0  0
   33.2620   36.2092   54.7436 O   0  0  0  0  0  0  0  0  0  0  0  0
   32.9246   35.1763   53.8154 C   0  0  0  0  0  0  0  0  0  0  0  0
   32.5821   35.7908   52.4828 C   0  0  0  0  0  0  0  0  0  0  0  0
   33.2989   35.4685   51.3879 N   0  0  0  0  0  0  0  0  0  0  0  0
   31.6615   36.5755   52.3953 O   0  0  0  0  0  0  0  0  0  0  0  0
   32.6899   37.0322   56.9002 C   0  0  0  0  0  0  0  0  0  0  0  0
   32.4162   36.7975   58.2299 C   0  0  0  0  0  0  0  0  0  0  0  0
   32.3953   33.0053   62.2194 H   0  0  0  0  0  0  0  0  0  0  0  0
   30.7656   32.4550   62.6772 H   0  0  0  0  0  0  0  0  0  0  0  0
   31.0288   33.2461   61.1045 H   0  0  0  0  0  0  0  0  0  0  0  0
   29.6184   38.4400   62.6340 H   0  0  0  0  0  0  0  0  0  0  0  0
   30.9121   38.6976   63.8291 H   0  0  0  0  0  0  0  0  0  0  0  0
   31.3176   38.4990   62.1074 H   0  0  0  0  0  0  0  0  0  0  0  0
   32.6095   34.3960   60.6509 H   0  0  0  0  0  0  0  0  0  0  0  0
   32.7788   33.4192   58.2529 H   0  0  0  0  0  0  0  0  0  0  0  0
   33.2564   33.8528   55.8814 H   0  0  0  0  0  0  0  0  0  0  0  0
   33.7730   34.5024   53.6975 H   0  0  0  0  0  0  0  0  0  0  0  0
   32.0662   34.6180   54.1894 H   0  0  0  0  0  0  0  0  0  0  0  0
   34.0353   34.8409   51.4577 H   0  0  0  0  0  0  0  0  0  0  0  0
   33.0786   35.8639   50.5300 H   0  0  0  0  0  0  0  0  0  0  0  0
   32.6694   38.0412   56.5154 H   0  0  0  0  0  0  0  0  0  0  0  0
   32.1811   37.6215   58.8873 H   0  0  0  0  0  0  0  0  0  0  0  0
  1  2  1  0  0  0  0
  1 21  1  0  0  0  0
  1 22  1  0  0  0  0
  1 23  1  0  0  0  0
  2  7  1  0  0  0  0
  2  3  2  0  0  0  0
  3  4  1  0  0  0  0
  4  5  2  0  0  0  0
  5  6  1  0  0  0  0
  5  7  1  0  0  0  0
  6 24  1  0  0  0  0
  6 25  1  0  0  0  0
  6 26  1  0  0  0  0
  7  8  1  0  0  0  0
  8  9  2  0  0  0  0
  9 10  1  0  0  0  0
  9 27  1  0  0  0  0
 10 20  2  0  0  0  0
 10 11  1  0  0  0  0
 11 12  2  0  0  0  0
 11 28  1  0  0  0  0
 12 13  1  0  0  0  0
 12 29  1  0  0  0  0
 13 14  1  0  0  0  0
 13 19  2  0  0  0  0
 14 15  1  0  0  0  0
 15 16  1  0  0  0  0
 15 30  1  0  0  0  0
 15 31  1  0  0  0  0
 16 17  1  0  0  0  0
 16 18  2  0  0  0  0
 17 32  1  0  0  0  0
 17 33  1  0  0  0  0
 19 20  1  0  0  0  0
 19 34  1  0  0  0  0
 20 35  1  0  0  0  0
M  END
$$$$
