ZINC000000051094      none
 OpenBabel11202420153D

 42 43  0  0  0  0  0  0  0  0999 V2000
   31.5439   37.7027   67.7971 C   0  0  0  0  0  0  0  0  0  0  0  0
   31.6807   38.4772   66.6041 O   0  0  0  0  0  0  0  0  0  0  0  0
   31.4459   37.8429   65.4271 C   0  0  0  0  0  0  0  0  0  0  0  0
   32.4887   37.2122   64.7602 C   0  0  0  0  0  0  0  0  0  0  0  0
   32.2567   36.5667   63.5664 C   0  0  0  0  0  0  0  0  0  0  0  0
   30.9672   36.5455   63.0217 C   0  0  0  0  0  0  0  0  0  0  0  0
   30.7170   35.8581   61.7482 C   0  0  0  0  0  0  0  0  0  0  0  0
   29.6325   35.3605   61.5305 O   0  0  0  0  0  0  0  0  0  0  0  0
   31.8076   35.7713   60.7118 C   0  0  0  0  0  0  0  0  0  0  0  0
   32.3047   37.4402   60.2179 S   0  0  0  0  0  0  0  0  0  0  0  0
   32.7985   37.1327   58.5546 C   0  0  0  0  0  0  0  0  0  0  0  0
   32.7194   35.9065   58.0598 N   0  0  0  0  0  0  0  0  0  0  0  0
   33.0784   35.6333   56.8208 C   0  0  0  0  0  0  0  0  0  0  0  0
   32.9663   34.2189   56.3132 C   0  0  0  0  0  0  0  0  0  0  0  0
   33.5514   36.6222   55.9764 C   0  0  0  0  0  0  0  0  0  0  0  0
   33.6610   37.9208   56.4414 C   0  0  0  0  0  0  0  0  0  0  0  0
   34.1776   39.0195   55.5485 C   0  0  0  0  0  0  0  0  0  0  0  0
   33.2748   38.1901   57.7595 C   0  0  0  0  0  0  0  0  0  0  0  0
   33.3628   39.5180   58.2883 C   0  0  0  0  0  0  0  0  0  0  0  0
   33.4325   40.5714   58.7078 N   0  0  0  0  0  0  0  0  0  0  0  0
   29.9178   37.1865   63.6918 C   0  0  0  0  0  0  0  0  0  0  0  0
   30.1584   37.8266   64.8907 C   0  0  0  0  0  0  0  0  0  0  0  0
   29.1408   38.4457   65.5470 O   0  0  0  0  0  0  0  0  0  0  0  0
   28.9045   39.8189   65.2294 C   0  0  0  0  0  0  0  0  0  0  0  0
   32.2433   36.8671   67.7702 H   0  0  0  0  0  0  0  0  0  0  0  0
   31.7587   38.3286   68.6633 H   0  0  0  0  0  0  0  0  0  0  0  0
   30.5251   37.3215   67.8680 H   0  0  0  0  0  0  0  0  0  0  0  0
   33.4839   37.2279   65.1795 H   0  0  0  0  0  0  0  0  0  0  0  0
   33.0694   36.0773   63.0503 H   0  0  0  0  0  0  0  0  0  0  0  0
   31.4390   35.2293   59.8409 H   0  0  0  0  0  0  0  0  0  0  0  0
   32.6658   35.2456   61.1305 H   0  0  0  0  0  0  0  0  0  0  0  0
   31.9813   34.0685   55.8712 H   0  0  0  0  0  0  0  0  0  0  0  0
   33.7336   34.0413   55.5597 H   0  0  0  0  0  0  0  0  0  0  0  0
   33.1027   33.5237   57.1416 H   0  0  0  0  0  0  0  0  0  0  0  0
   33.8367   36.3813   54.9629 H   0  0  0  0  0  0  0  0  0  0  0  0
   35.2601   39.0937   55.6529 H   0  0  0  0  0  0  0  0  0  0  0  0
   33.7193   39.9661   55.8349 H   0  0  0  0  0  0  0  0  0  0  0  0
   33.9272   38.7933   54.5121 H   0  0  0  0  0  0  0  0  0  0  0  0
   28.9223   37.1766   63.2734 H   0  0  0  0  0  0  0  0  0  0  0  0
   28.0680   40.1900   65.8216 H   0  0  0  0  0  0  0  0  0  0  0  0
   29.7967   40.4027   65.4552 H   0  0  0  0  0  0  0  0  0  0  0  0
   28.6683   39.9111   64.1693 H   0  0  0  0  0  0  0  0  0  0  0  0
  1  2  1  0  0  0  0
  1 25  1  0  0  0  0
  1 26  1  0  0  0  0
  1 27  1  0  0  0  0
  2  3  1  0  0  0  0
  3 22  2  0  0  0  0
  3  4  1  0  0  0  0
  4  5  2  0  0  0  0
  4 28  1  0  0  0  0
  5  6  1  0  0  0  0
  5 29  1  0  0  0  0
  6  7  1  0  0  0  0
  6 21  2  0  0  0  0
  7  8  2  0  0  0  0
  7  9  1  0  0  0  0
  9 10  1  0  0  0  0
  9 30  1  0  0  0  0
  9 31  1  0  0  0  0
 10 11  1  0  0  0  0
 11 18  2  0  0  0  0
 11 12  1  0  0  0  0
 12 13  2  0  0  0  0
 13 14  1  0  0  0  0
 13 15  1  0  0  0  0
 14 32  1  0  0  0  0
 14 33  1  0  0  0  0
 14 34  1  0  0  0  0
 15 16  2  0  0  0  0
 15 35  1  0  0  0  0
 16 17  1  0  0  0  0
 16 18  1  0  0  0  0
 17 36  1  0  0  0  0
 17 37  1  0  0  0  0
 17 38  1  0  0  0  0
 18 19  1  0  0  0  0
 19 20  3  0  0  0  0
 21 22  1  0  0  0  0
 21 39  1  0  0  0  0
 22 23  1  0  0  0  0
 23 24  1  0  0  0  0
 24 40  1  0  0  0  0
 24 41  1  0  0  0  0
 24 42  1  0  0  0  0
M  END
$$$$
