ZINC000000039796      none
 OpenBabel11202420153D

 22 23  0  0  0  0  0  0  0  0999 V2000
   33.2271   40.8061   59.1547 N   0  0  0  0  0  0  0  0  0  0  0  0
   32.9239   39.4772   58.9061 C   0  0  0  0  0  0  0  0  0  0  0  0
   32.5769   38.6076   59.8036 N   0  0  0  0  0  0  0  0  0  0  0  0
   32.3222   37.3713   59.3769 C   0  0  0  0  0  0  0  0  0  0  0  0
   31.9165   36.2818   60.2976 C   0  0  0  0  0  0  0  0  0  0  0  0
   32.2438   34.9591   60.0035 C   0  0  0  0  0  0  0  0  0  0  0  0
   31.8681   33.9499   60.8666 C   0  0  0  0  0  0  0  0  0  0  0  0
   31.1582   34.2477   62.0159 C   0  0  0  0  0  0  0  0  0  0  0  0
   30.7528   33.1599   62.9348 N   0  0  0  0  0  0  0  0  0  0  0  0
   31.0444   32.0056   62.6780 O   0  0  0  0  0  0  0  0  0  0  0  0
   30.1278   33.4193   63.9474 O   0  0  0  0  0  0  0  0  0  0  0  0
   30.8261   35.5579   62.3103 C   0  0  0  0  0  0  0  0  0  0  0  0
   31.2014   36.5759   61.4574 C   0  0  0  0  0  0  0  0  0  0  0  0
   32.4593   37.1809   58.0536 C   0  0  0  0  0  0  0  0  0  0  0  0
   32.9500   38.7073   57.3228 S   0  0  0  0  0  0  0  0  0  0  0  0
   33.4781   41.3913   58.4231 H   0  0  0  0  0  0  0  0  0  0  0  0
   33.1883   41.1512   60.0604 H   0  0  0  0  0  0  0  0  0  0  0  0
   32.7937   34.7250   59.1040 H   0  0  0  0  0  0  0  0  0  0  0  0
   32.1250   32.9252   60.6420 H   0  0  0  0  0  0  0  0  0  0  0  0
   30.2718   35.7846   63.2089 H   0  0  0  0  0  0  0  0  0  0  0  0
   30.9419   37.5985   61.6884 H   0  0  0  0  0  0  0  0  0  0  0  0
   32.2962   36.2516   57.5280 H   0  0  0  0  0  0  0  0  0  0  0  0
  1  2  1  0  0  0  0
  1 16  1  0  0  0  0
  1 17  1  0  0  0  0
  2 15  1  0  0  0  0
  2  3  2  0  0  0  0
  3  4  1  0  0  0  0
  4  5  1  0  0  0  0
  4 14  2  0  0  0  0
  5 13  2  0  0  0  0
  5  6  1  0  0  0  0
  6  7  2  0  0  0  0
  6 18  1  0  0  0  0
  7  8  1  0  0  0  0
  7 19  1  0  0  0  0
  8  9  1  0  0  0  0
  8 12  2  0  0  0  0
  9 10  2  0  0  0  0
  9 11  2  0  0  0  0
 12 13  1  0  0  0  0
 12 20  1  0  0  0  0
 13 21  1  0  0  0  0
 14 15  1  0  0  0  0
 14 22  1  0  0  0  0
M  END
$$$$
