ZINC000000025884      none
 OpenBabel11202420153D

 23 24  0  0  0  0  0  0  0  0999 V2000
   32.2541   37.4816   62.3750 O   0  0  0  0  0  0  0  0  0  0  0  0
   32.6456   37.3936   61.0170 N   0  0  0  0  0  0  0  0  0  0  0  0
   32.4942   38.4123   60.2323 C   0  0  0  0  0  0  0  0  0  0  0  0
   32.9016   38.3207   58.8192 C   0  0  0  0  0  0  0  0  0  0  0  0
   33.3463   39.4717   58.1437 C   0  0  0  0  0  0  0  0  0  0  0  0
   33.7223   39.4141   56.8414 C   0  0  0  0  0  0  0  0  0  0  0  0
   33.6761   38.1916   56.1447 C   0  0  0  0  0  0  0  0  0  0  0  0
   34.0610   38.1124   54.7960 C   0  0  0  0  0  0  0  0  0  0  0  0
   34.0055   36.9165   54.1472 C   0  0  0  0  0  0  0  0  0  0  0  0
   33.5718   35.7654   54.8011 C   0  0  0  0  0  0  0  0  0  0  0  0
   33.1915   35.8041   56.1080 C   0  0  0  0  0  0  0  0  0  0  0  0
   33.2355   37.0203   56.8094 C   0  0  0  0  0  0  0  0  0  0  0  0
   32.8487   37.0949   58.1620 C   0  0  0  0  0  0  0  0  0  0  0  0
   32.4238   35.9851   58.8153 O   0  0  0  0  0  0  0  0  0  0  0  0
   32.4056   36.6718   62.8813 H   0  0  0  0  0  0  0  0  0  0  0  0
   32.0693   39.3290   60.6135 H   0  0  0  0  0  0  0  0  0  0  0  0
   33.3859   40.4150   58.6682 H   0  0  0  0  0  0  0  0  0  0  0  0
   34.0576   40.3087   56.3376 H   0  0  0  0  0  0  0  0  0  0  0  0
   34.3995   38.9964   54.2759 H   0  0  0  0  0  0  0  0  0  0  0  0
   34.3025   36.8596   53.1105 H   0  0  0  0  0  0  0  0  0  0  0  0
   33.5370   34.8291   54.2639 H   0  0  0  0  0  0  0  0  0  0  0  0
   32.8572   34.9042   56.6027 H   0  0  0  0  0  0  0  0  0  0  0  0
   32.1774   36.1415   59.7373 H   0  0  0  0  0  0  0  0  0  0  0  0
  1  2  1  0  0  0  0
  1 15  1  0  0  0  0
  2  3  2  0  0  0  0
  3  4  1  0  0  0  0
  3 16  1  0  0  0  0
  4 13  2  0  0  0  0
  4  5  1  0  0  0  0
  5  6  2  0  0  0  0
  5 17  1  0  0  0  0
  6  7  1  0  0  0  0
  6 18  1  0  0  0  0
  7 12  2  0  0  0  0
  7  8  1  0  0  0  0
  8  9  2  0  0  0  0
  8 19  1  0  0  0  0
  9 10  1  0  0  0  0
  9 20  1  0  0  0  0
 10 11  2  0  0  0  0
 10 21  1  0  0  0  0
 11 12  1  0  0  0  0
 11 22  1  0  0  0  0
 12 13  1  0  0  0  0
 13 14  1  0  0  0  0
 14 23  1  0  0  0  0
M  END
$$$$
