ZINC000000041815      none
 OpenBabel11202420153D

 33 34  0  0  0  0  0  0  0  0999 V2000
   34.3164   34.6227   55.9935 C   0  0  0  0  0  0  0  0  0  0  0  0
   33.1755   35.6072   56.0014 C   0  0  0  0  0  0  0  0  0  0  0  0
   32.1503   35.3524   55.4048 O   0  0  0  0  0  0  0  0  0  0  0  0
   33.3046   36.8742   56.7309 C   0  0  0  0  0  0  0  0  0  0  0  0
   32.9039   36.9678   58.1372 C   0  0  0  0  0  0  0  0  0  0  0  0
   33.0444   38.1680   58.7705 C   0  0  0  0  0  0  0  0  0  0  0  0
   32.6750   38.3078   60.1144 N   0  0  0  0  0  0  0  0  0  0  0  0
   31.6804   37.5529   60.6219 C   0  0  0  0  0  0  0  0  0  0  0  0
   31.1040   36.7506   59.9134 O   0  0  0  0  0  0  0  0  0  0  0  0
   31.2907   37.7004   62.0401 C   0  0  0  0  0  0  0  0  0  0  0  0
   30.3043   38.6186   62.4041 C   0  0  0  0  0  0  0  0  0  0  0  0
   29.9414   38.7476   63.7289 C   0  0  0  0  0  0  0  0  0  0  0  0
   30.5606   37.9766   64.6971 C   0  0  0  0  0  0  0  0  0  0  0  0
   31.5426   37.0688   64.3436 C   0  0  0  0  0  0  0  0  0  0  0  0
   31.9113   36.9262   63.0220 C   0  0  0  0  0  0  0  0  0  0  0  0
   33.5671   39.2701   58.0533 C   0  0  0  0  0  0  0  0  0  0  0  0
   33.6948   40.3441   58.6141 O   0  0  0  0  0  0  0  0  0  0  0  0
   33.9246   39.1511   56.7658 O   0  0  0  0  0  0  0  0  0  0  0  0
   33.8058   37.9968   56.1034 C   0  0  0  0  0  0  0  0  0  0  0  0
   34.2226   37.9199   54.6572 C   0  0  0  0  0  0  0  0  0  0  0  0
   34.5392   34.3166   57.0158 H   0  0  0  0  0  0  0  0  0  0  0  0
   34.0379   33.7485   55.4051 H   0  0  0  0  0  0  0  0  0  0  0  0
   35.1972   35.0908   55.5543 H   0  0  0  0  0  0  0  0  0  0  0  0
   32.5076   36.1091   58.6588 H   0  0  0  0  0  0  0  0  0  0  0  0
   33.1348   38.9479   60.6797 H   0  0  0  0  0  0  0  0  0  0  0  0
   29.8237   39.2241   61.6499 H   0  0  0  0  0  0  0  0  0  0  0  0
   29.1753   39.4545   64.0113 H   0  0  0  0  0  0  0  0  0  0  0  0
   30.2761   38.0854   65.7333 H   0  0  0  0  0  0  0  0  0  0  0  0
   32.0220   36.4704   65.1042 H   0  0  0  0  0  0  0  0  0  0  0  0
   32.6785   36.2173   62.7475 H   0  0  0  0  0  0  0  0  0  0  0  0
   34.5902   38.8933   54.3328 H   0  0  0  0  0  0  0  0  0  0  0  0
   35.0128   37.1775   54.5458 H   0  0  0  0  0  0  0  0  0  0  0  0
   33.3661   37.6332   54.0470 H   0  0  0  0  0  0  0  0  0  0  0  0
  1  2  1  0  0  0  0
  1 21  1  0  0  0  0
  1 22  1  0  0  0  0
  1 23  1  0  0  0  0
  2  3  2  0  0  0  0
  2  4  1  0  0  0  0
  4 19  2  0  0  0  0
  4  5  1  0  0  0  0
  5  6  2  0  0  0  0
  5 24  1  0  0  0  0
  6  7  1  0  0  0  0
  6 16  1  0  0  0  0
  7  8  1  0  0  0  0
  7 25  1  0  0  0  0
  8  9  2  0  0  0  0
  8 10  1  0  0  0  0
 10 15  2  0  0  0  0
 10 11  1  0  0  0  0
 11 12  2  0  0  0  0
 11 26  1  0  0  0  0
 12 13  1  0  0  0  0
 12 27  1  0  0  0  0
 13 14  2  0  0  0  0
 13 28  1  0  0  0  0
 14 15  1  0  0  0  0
 14 29  1  0  0  0  0
 15 30  1  0  0  0  0
 16 17  2  0  0  0  0
 16 18  1  0  0  0  0
 18 19  1  0  0  0  0
 19 20  1  0  0  0  0
 20 31  1  0  0  0  0
 20 32  1  0  0  0  0
 20 33  1  0  0  0  0
M  END
$$$$
