ZINC000000031266      none
 OpenBabel11202420163D

 25 26  0  0  0  0  0  0  0  0999 V2000
   32.0683   38.6113   65.8896 C   0  0  0  0  0  0  0  0  0  0  0  0
   31.5693   38.1469   64.5928 N   0  0  0  0  0  0  0  0  0  0  0  0
   30.3192   37.6725   64.3664 C   0  0  0  0  0  0  0  0  0  0  0  0
   30.2470   37.3482   63.0533 C   0  0  0  0  0  0  0  0  0  0  0  0
   28.7588   36.6336   62.1313 Br  0  0  0  0  0  0  0  0  0  0  0  0
   31.5201   37.6563   62.5165 C   0  0  0  0  0  0  0  0  0  0  0  0
   31.9469   37.4806   61.1141 C   0  0  0  0  0  0  0  0  0  0  0  0
   31.9319   36.3752   60.6081 O   0  0  0  0  0  0  0  0  0  0  0  0
   32.3532   38.5455   60.3949 N   0  0  0  0  0  0  0  0  0  0  0  0
   32.7559   38.3797   59.0716 C   0  0  0  0  0  0  0  0  0  0  0  0
   33.1734   39.4829   58.3352 C   0  0  0  0  0  0  0  0  0  0  0  0
   33.5766   39.3031   57.0239 C   0  0  0  0  0  0  0  0  0  0  0  0
   33.5367   38.0228   56.4883 C   0  0  0  0  0  0  0  0  0  0  0  0
   33.1103   36.9730   57.2771 C   0  0  0  0  0  0  0  0  0  0  0  0
   32.7372   37.1736   58.5266 N   0  0  0  0  0  0  0  0  0  0  0  0
   32.2544   38.1245   63.5062 N   0  0  0  0  0  0  0  0  0  0  0  0
   32.5139   37.7749   66.4280 H   0  0  0  0  0  0  0  0  0  0  0  0
   32.8200   39.3852   65.7337 H   0  0  0  0  0  0  0  0  0  0  0  0
   31.2421   39.0195   66.4718 H   0  0  0  0  0  0  0  0  0  0  0  0
   29.5293   37.5722   65.0960 H   0  0  0  0  0  0  0  0  0  0  0  0
   32.3651   39.4273   60.7987 H   0  0  0  0  0  0  0  0  0  0  0  0
   33.1873   40.4659   58.7821 H   0  0  0  0  0  0  0  0  0  0  0  0
   33.9107   40.1405   56.4292 H   0  0  0  0  0  0  0  0  0  0  0  0
   33.8401   37.8492   55.4664 H   0  0  0  0  0  0  0  0  0  0  0  0
   33.0815   35.9747   56.8660 H   0  0  0  0  0  0  0  0  0  0  0  0
  1  2  1  0  0  0  0
  1 17  1  0  0  0  0
  1 18  1  0  0  0  0
  1 19  1  0  0  0  0
  2 16  1  0  0  0  0
  2  3  1  0  0  0  0
  3  4  2  0  0  0  0
  3 20  1  0  0  0  0
  4  5  1  0  0  0  0
  4  6  1  0  0  0  0
  6  7  1  0  0  0  0
  6 16  2  0  0  0  0
  7  8  2  0  0  0  0
  7  9  1  0  0  0  0
  9 10  1  0  0  0  0
  9 21  1  0  0  0  0
 10 15  2  0  0  0  0
 10 11  1  0  0  0  0
 11 12  2  0  0  0  0
 11 22  1  0  0  0  0
 12 13  1  0  0  0  0
 12 23  1  0  0  0  0
 13 14  2  0  0  0  0
 13 24  1  0  0  0  0
 14 15  1  0  0  0  0
 14 25  1  0  0  0  0
M  END
$$$$
