ZINC000000041825      none
 OpenBabel11202420153D

 35 37  0  0  0  0  0  0  0  0999 V2000
   32.8731   34.2417   55.5222 C   0  0  0  0  0  0  0  0  0  0  0  0
   32.6140   34.9827   56.7591 N   0  0  0  0  0  0  0  0  0  0  0  0
   32.0993   34.4376   57.8745 C   0  0  0  0  0  0  0  0  0  0  0  0
   31.7785   33.2722   58.0197 O   0  0  0  0  0  0  0  0  0  0  0  0
   31.9881   35.4998   58.8889 C   0  0  0  0  0  0  0  0  0  0  0  0
   31.5308   35.3896   60.1149 N   0  0  0  0  0  0  0  0  0  0  0  0
   31.1083   34.2494   60.5456 N   0  0  0  0  0  0  0  0  0  0  0  0
   31.8277   33.5421   61.8589 S   0  0  0  0  0  0  0  0  0  0  0  0
   33.2185   33.4854   61.5725 O   0  0  0  0  0  0  0  0  0  0  0  0
   31.0512   32.3940   62.1719 O   0  0  0  0  0  0  0  0  0  0  0  0
   31.6439   34.6520   63.2151 C   0  0  0  0  0  0  0  0  0  0  0  0
   32.6112   35.6083   63.4614 C   0  0  0  0  0  0  0  0  0  0  0  0
   32.4672   36.4789   64.5256 C   0  0  0  0  0  0  0  0  0  0  0  0
   31.3566   36.3920   65.3442 C   0  0  0  0  0  0  0  0  0  0  0  0
   30.3900   35.4348   65.0986 C   0  0  0  0  0  0  0  0  0  0  0  0
   30.5338   34.5646   64.0341 C   0  0  0  0  0  0  0  0  0  0  0  0
   32.5103   36.7182   58.2272 C   0  0  0  0  0  0  0  0  0  0  0  0
   32.6754   38.0334   58.6466 C   0  0  0  0  0  0  0  0  0  0  0  0
   33.2030   38.9678   57.7782 C   0  0  0  0  0  0  0  0  0  0  0  0
   33.5662   38.5954   56.4947 C   0  0  0  0  0  0  0  0  0  0  0  0
   33.4056   37.2926   56.0691 C   0  0  0  0  0  0  0  0  0  0  0  0
   32.8758   36.3372   56.9299 C   0  0  0  0  0  0  0  0  0  0  0  0
   33.8833   33.8330   55.5484 H   0  0  0  0  0  0  0  0  0  0  0  0
   32.1542   33.4277   55.4289 H   0  0  0  0  0  0  0  0  0  0  0  0
   32.7748   34.9129   54.6691 H   0  0  0  0  0  0  0  0  0  0  0  0
   30.3693   33.8062   60.1002 H   0  0  0  0  0  0  0  0  0  0  0  0
   33.4787   35.6764   62.8218 H   0  0  0  0  0  0  0  0  0  0  0  0
   33.2202   37.2295   64.7148 H   0  0  0  0  0  0  0  0  0  0  0  0
   31.2444   37.0718   66.1758 H   0  0  0  0  0  0  0  0  0  0  0  0
   29.5227   35.3665   65.7384 H   0  0  0  0  0  0  0  0  0  0  0  0
   29.7789   33.8163   63.8426 H   0  0  0  0  0  0  0  0  0  0  0  0
   32.3919   38.3229   59.6477 H   0  0  0  0  0  0  0  0  0  0  0  0
   33.3332   39.9904   58.1002 H   0  0  0  0  0  0  0  0  0  0  0  0
   33.9785   39.3315   55.8206 H   0  0  0  0  0  0  0  0  0  0  0  0
   33.6923   37.0142   55.0657 H   0  0  0  0  0  0  0  0  0  0  0  0
  1  2  1  0  0  0  0
  1 23  1  0  0  0  0
  1 24  1  0  0  0  0
  1 25  1  0  0  0  0
  2 22  1  0  0  0  0
  2  3  1  0  0  0  0
  3  4  2  0  0  0  0
  3  5  1  0  0  0  0
  5  6  2  0  0  0  0
  5 17  1  0  0  0  0
  6  7  1  0  0  0  0
  7  8  1  0  0  0  0
  7 26  1  0  0  0  0
  8  9  2  0  0  0  0
  8 10  2  0  0  0  0
  8 11  1  0  0  0  0
 11 16  2  0  0  0  0
 11 12  1  0  0  0  0
 12 13  2  0  0  0  0
 12 27  1  0  0  0  0
 13 14  1  0  0  0  0
 13 28  1  0  0  0  0
 14 15  2  0  0  0  0
 14 29  1  0  0  0  0
 15 16  1  0  0  0  0
 15 30  1  0  0  0  0
 16 31  1  0  0  0  0
 17 22  2  0  0  0  0
 17 18  1  0  0  0  0
 18 19  2  0  0  0  0
 18 32  1  0  0  0  0
 19 20  1  0  0  0  0
 19 33  1  0  0  0  0
 20 21  2  0  0  0  0
 20 34  1  0  0  0  0
 21 22  1  0  0  0  0
 21 35  1  0  0  0  0
M  END
$$$$
