ZINC000000038735      none
 OpenBabel11202420153D

 32 33  0  0  0  0  0  0  0  0999 V2000
   33.6601   33.1225   54.0108 C   0  0  0  0  0  0  0  0  0  0  0  0
   33.1984   33.3849   55.4458 C   0  0  0  0  0  0  0  0  0  0  0  0
   33.3361   34.7985   55.7478 O   0  0  0  0  0  0  0  0  0  0  0  0
   32.9692   35.1995   56.9821 C   0  0  0  0  0  0  0  0  0  0  0  0
   32.5457   34.3889   57.7842 O   0  0  0  0  0  0  0  0  0  0  0  0
   33.0806   36.6107   57.3568 C   0  0  0  0  0  0  0  0  0  0  0  0
   32.7265   37.0917   58.5842 C   0  0  0  0  0  0  0  0  0  0  0  0
   32.2235   36.3175   59.6182 N   0  0  0  0  0  0  0  0  0  0  0  0
   31.9034   36.8909   60.7951 C   0  0  0  0  0  0  0  0  0  0  0  0
   32.0510   38.0849   60.9481 O   0  0  0  0  0  0  0  0  0  0  0  0
   31.3623   36.0482   61.9214 C   0  0  0  0  0  0  0  0  0  0  0  0
   31.2830   34.7138   61.5088 F   0  0  0  0  0  0  0  0  0  0  0  0
   32.2140   36.1448   63.0269 F   0  0  0  0  0  0  0  0  0  0  0  0
   30.0874   36.5041   62.2736 F   0  0  0  0  0  0  0  0  0  0  0  0
   32.9935   38.7690   58.6748 S   0  0  0  0  0  0  0  0  0  0  0  0
   33.5933   38.8483   57.0185 C   0  0  0  0  0  0  0  0  0  0  0  0
   33.5784   37.6448   56.4535 C   0  0  0  0  0  0  0  0  0  0  0  0
   34.0991   37.7277   55.0212 C   0  0  0  0  0  0  0  0  0  0  0  0
   34.8460   39.0746   54.9479 C   0  0  0  0  0  0  0  0  0  0  0  0
   34.1248   39.8894   56.0405 C   0  0  0  0  0  0  0  0  0  0  0  0
   33.0483   33.7028   53.3203 H   0  0  0  0  0  0  0  0  0  0  0  0
   34.7046   33.4164   53.9059 H   0  0  0  0  0  0  0  0  0  0  0  0
   33.5568   32.0613   53.7842 H   0  0  0  0  0  0  0  0  0  0  0  0
   33.8104   32.8046   56.1363 H   0  0  0  0  0  0  0  0  0  0  0  0
   32.1540   33.0909   55.5508 H   0  0  0  0  0  0  0  0  0  0  0  0
   32.1055   35.3626   59.4959 H   0  0  0  0  0  0  0  0  0  0  0  0
   34.7829   36.9035   54.8181 H   0  0  0  0  0  0  0  0  0  0  0  0
   33.2692   37.7137   54.3148 H   0  0  0  0  0  0  0  0  0  0  0  0
   35.9019   38.9491   55.1872 H   0  0  0  0  0  0  0  0  0  0  0  0
   34.7218   39.5373   53.9688 H   0  0  0  0  0  0  0  0  0  0  0  0
   33.3018   40.4584   55.6081 H   0  0  0  0  0  0  0  0  0  0  0  0
   34.8264   40.5566   56.5412 H   0  0  0  0  0  0  0  0  0  0  0  0
  1  2  1  0  0  0  0
  1 21  1  0  0  0  0
  1 22  1  0  0  0  0
  1 23  1  0  0  0  0
  2  3  1  0  0  0  0
  2 24  1  0  0  0  0
  2 25  1  0  0  0  0
  3  4  1  0  0  0  0
  4  5  2  0  0  0  0
  4  6  1  0  0  0  0
  6 17  1  0  0  0  0
  6  7  2  0  0  0  0
  7  8  1  0  0  0  0
  7 15  1  0  0  0  0
  8  9  1  0  0  0  0
  8 26  1  0  0  0  0
  9 10  2  0  0  0  0
  9 11  1  0  0  0  0
 11 12  1  0  0  0  0
 11 13  1  0  0  0  0
 11 14  1  0  0  0  0
 15 16  1  0  0  0  0
 16 20  1  0  0  0  0
 16 17  2  0  0  0  0
 17 18  1  0  0  0  0
 18 19  1  0  0  0  0
 18 27  1  0  0  0  0
 18 28  1  0  0  0  0
 19 20  1  0  0  0  0
 19 29  1  0  0  0  0
 19 30  1  0  0  0  0
 20 31  1  0  0  0  0
 20 32  1  0  0  0  0
M  END
$$$$
