ZINC000000029620      none
 OpenBabel11202420163D

 27 28  0  0  0  0  0  0  0  0999 V2000
   30.3999   36.5561   61.7380 C   0  0  0  0  0  0  0  0  0  0  0  0
   32.1018   36.0216   61.4085 S   0  0  0  0  0  0  0  0  0  0  0  0
   32.2834   34.6674   61.7987 O   0  0  0  0  0  0  0  0  0  0  0  0
   33.0252   37.0276   61.8015 O   0  0  0  0  0  0  0  0  0  0  0  0
   32.2120   35.9889   59.7564 N   0  0  0  0  0  0  0  0  0  0  0  0
   31.8820   34.7671   59.0101 C   0  0  0  0  0  0  0  0  0  0  0  0
   32.9729   34.5547   57.9523 C   0  0  0  0  0  0  0  0  0  0  0  0
   32.9454   35.7271   56.9720 C   0  0  0  0  0  0  0  0  0  0  0  0
   32.9868   37.0365   57.7146 C   0  0  0  0  0  0  0  0  0  0  0  0
   33.3965   38.1757   57.0418 C   0  0  0  0  0  0  0  0  0  0  0  0
   33.4371   39.3931   57.6932 C   0  0  0  0  0  0  0  0  0  0  0  0
   33.0739   39.4813   59.0247 C   0  0  0  0  0  0  0  0  0  0  0  0
   32.6606   38.3516   59.7016 C   0  0  0  0  0  0  0  0  0  0  0  0
   32.6206   37.1244   59.0484 C   0  0  0  0  0  0  0  0  0  0  0  0
   29.7033   35.8427   61.2977 H   0  0  0  0  0  0  0  0  0  0  0  0
   30.2368   36.6061   62.8145 H   0  0  0  0  0  0  0  0  0  0  0  0
   30.2370   37.5407   61.2997 H   0  0  0  0  0  0  0  0  0  0  0  0
   31.8558   33.9153   59.6896 H   0  0  0  0  0  0  0  0  0  0  0  0
   30.9129   34.8816   58.5245 H   0  0  0  0  0  0  0  0  0  0  0  0
   33.9478   34.5072   58.4375 H   0  0  0  0  0  0  0  0  0  0  0  0
   32.7858   33.6240   57.4167 H   0  0  0  0  0  0  0  0  0  0  0  0
   32.0322   35.6787   56.3787 H   0  0  0  0  0  0  0  0  0  0  0  0
   33.8082   35.6620   56.3091 H   0  0  0  0  0  0  0  0  0  0  0  0
   33.6857   38.1118   56.0032 H   0  0  0  0  0  0  0  0  0  0  0  0
   33.7576   40.2775   57.1625 H   0  0  0  0  0  0  0  0  0  0  0  0
   33.1094   40.4335   59.5330 H   0  0  0  0  0  0  0  0  0  0  0  0
   32.3722   38.4199   60.7402 H   0  0  0  0  0  0  0  0  0  0  0  0
  1  2  1  0  0  0  0
  1 15  1  0  0  0  0
  1 16  1  0  0  0  0
  1 17  1  0  0  0  0
  2  3  2  0  0  0  0
  2  4  2  0  0  0  0
  2  5  1  0  0  0  0
  5 14  1  0  0  0  0
  5  6  1  0  0  0  0
  6  7  1  0  0  0  0
  6 18  1  0  0  0  0
  6 19  1  0  0  0  0
  7  8  1  0  0  0  0
  7 20  1  0  0  0  0
  7 21  1  0  0  0  0
  8  9  1  0  0  0  0
  8 22  1  0  0  0  0
  8 23  1  0  0  0  0
  9 14  2  0  0  0  0
  9 10  1  0  0  0  0
 10 11  2  0  0  0  0
 10 24  1  0  0  0  0
 11 12  1  0  0  0  0
 11 25  1  0  0  0  0
 12 13  2  0  0  0  0
 12 26  1  0  0  0  0
 13 14  1  0  0  0  0
 13 27  1  0  0  0  0
M  END
$$$$
