ZINC000000000099      none
 OpenBabel11202420153D

 33 33  0  0  1  0  0  0  0  0999 V2000
   34.9489   38.2789   53.1197 C   0  0  0  0  0  0  0  0  0  0  0  0
   34.5717   38.7493   54.5259 C   0  0  0  0  0  0  0  0  0  0  0  0
   34.0588   37.6461   55.2755 O   0  0  0  0  0  0  0  0  0  0  0  0
   33.6741   37.8952   56.5557 C   0  0  0  0  0  0  0  0  0  0  0  0
   33.1668   36.8691   57.3393 C   0  0  0  0  0  0  0  0  0  0  0  0
   32.7755   37.1215   58.6393 C   0  0  0  0  0  0  0  0  0  0  0  0
   32.8904   38.4025   59.1623 C   0  0  0  0  0  0  0  0  0  0  0  0
   32.4933   38.6594   60.4811 N   0  0  0  0  0  0  0  0  0  0  0  0
   31.5013   37.9375   61.0390 C   0  0  0  0  0  0  0  0  0  0  0  0
   30.9523   37.0655   60.3993 O   0  0  0  0  0  0  0  0  0  0  0  0
   31.0699   38.2180   62.4555 C   0  0  0  0  0  0  0  0  0  0  0  0
   31.2675   36.9623   63.3068 C   0  0  1  0  0  0  0  0  0  0  0  0
   30.6679   36.1486   62.8989 H   0  0  0  0  0  0  0  0  0  0  0  0
   32.7446   36.5641   63.2931 C   0  0  0  0  0  0  0  0  0  0  0  0
   30.8584   37.2282   64.6500 O   0  0  0  0  0  0  0  0  0  0  0  0
   33.3939   39.4301   58.3760 C   0  0  0  0  0  0  0  0  0  0  0  0
   33.7889   39.1754   57.0775 C   0  0  0  0  0  0  0  0  0  0  0  0
   35.7096   37.5013   53.1884 H   0  0  0  0  0  0  0  0  0  0  0  0
   34.0656   37.8802   52.6209 H   0  0  0  0  0  0  0  0  0  0  0  0
   35.3401   39.1205   52.5480 H   0  0  0  0  0  0  0  0  0  0  0  0
   33.8110   39.5269   54.4572 H   0  0  0  0  0  0  0  0  0  0  0  0
   35.4550   39.1481   55.0248 H   0  0  0  0  0  0  0  0  0  0  0  0
   33.0773   35.8727   56.9324 H   0  0  0  0  0  0  0  0  0  0  0  0
   32.3798   36.3226   59.2490 H   0  0  0  0  0  0  0  0  0  0  0  0
   32.9324   39.3569   60.9928 H   0  0  0  0  0  0  0  0  0  0  0  0
   31.6696   39.0317   62.8634 H   0  0  0  0  0  0  0  0  0  0  0  0
   30.0177   38.5019   62.4653 H   0  0  0  0  0  0  0  0  0  0  0  0
   33.3442   37.3777   63.7011 H   0  0  0  0  0  0  0  0  0  0  0  0
   32.8855   35.6695   63.8997 H   0  0  0  0  0  0  0  0  0  0  0  0
   33.0568   36.3611   62.2686 H   0  0  0  0  0  0  0  0  0  0  0  0
   30.9564   36.4743   65.2476 H   0  0  0  0  0  0  0  0  0  0  0  0
   33.4799   40.4277   58.7808 H   0  0  0  0  0  0  0  0  0  0  0  0
   34.1833   39.9740   56.4666 H   0  0  0  0  0  0  0  0  0  0  0  0
  1  2  1  0  0  0  0
  1 18  1  0  0  0  0
  1 19  1  0  0  0  0
  1 20  1  0  0  0  0
  2  3  1  0  0  0  0
  2 21  1  0  0  0  0
  2 22  1  0  0  0  0
  3  4  1  0  0  0  0
  4 17  2  0  0  0  0
  4  5  1  0  0  0  0
  5  6  2  0  0  0  0
  5 23  1  0  0  0  0
  6  7  1  0  0  0  0
  6 24  1  0  0  0  0
  7  8  1  0  0  0  0
  7 16  2  0  0  0  0
  8  9  1  0  0  0  0
  8 25  1  0  0  0  0
  9 10  2  0  0  0  0
  9 11  1  0  0  0  0
 11 12  1  0  0  0  0
 11 26  1  0  0  0  0
 11 27  1  0  0  0  0
 12 13  1  6  0  0  0
 12 14  1  0  0  0  0
 12 15  1  0  0  0  0
 14 28  1  0  0  0  0
 14 29  1  0  0  0  0
 14 30  1  0  0  0  0
 15 31  1  0  0  0  0
 16 17  1  0  0  0  0
 16 32  1  0  0  0  0
 17 33  1  0  0  0  0
M  END
$$$$
