ZINC000000057975      none
 OpenBabel11202420153D

 34 36  0  0  0  0  0  0  0  0999 V2000
   33.9213   32.7394   54.8904 C   0  0  0  0  0  0  0  0  0  0  0  0
   34.0189   34.1632   54.8166 O   0  0  0  0  0  0  0  0  0  0  0  0
   33.6052   34.8663   55.9016 C   0  0  0  0  0  0  0  0  0  0  0  0
   33.6745   36.2583   55.8917 C   0  0  0  0  0  0  0  0  0  0  0  0
   33.2621   36.9775   56.9742 C   0  0  0  0  0  0  0  0  0  0  0  0
   32.7651   36.3156   58.1072 C   0  0  0  0  0  0  0  0  0  0  0  0
   32.3307   37.0592   59.2343 C   0  0  0  0  0  0  0  0  0  0  0  0
   32.3968   38.5647   59.2306 C   0  0  0  0  0  0  0  0  0  0  0  0
   31.8541   36.3862   60.3269 C   0  0  0  0  0  0  0  0  0  0  0  0
   31.3949   37.1276   61.5248 C   0  0  0  0  0  0  0  0  0  0  0  0
   32.2935   37.4303   62.5475 C   0  0  0  0  0  0  0  0  0  0  0  0
   31.8606   38.1212   63.6605 C   0  0  0  0  0  0  0  0  0  0  0  0
   30.5371   38.5139   63.7631 C   0  0  0  0  0  0  0  0  0  0  0  0
   29.9514   39.4606   65.2917 Br  0  0  0  0  0  0  0  0  0  0  0  0
   29.6408   38.2161   62.7511 C   0  0  0  0  0  0  0  0  0  0  0  0
   30.0628   37.5255   61.6336 C   0  0  0  0  0  0  0  0  0  0  0  0
   31.7987   34.9227   60.2924 C   0  0  0  0  0  0  0  0  0  0  0  0
   31.3731   34.3087   61.2534 O   0  0  0  0  0  0  0  0  0  0  0  0
   32.2162   34.2561   59.2028 O   0  0  0  0  0  0  0  0  0  0  0  0
   32.6929   34.9109   58.1216 C   0  0  0  0  0  0  0  0  0  0  0  0
   33.1169   34.1954   57.0102 C   0  0  0  0  0  0  0  0  0  0  0  0
   34.5249   32.3764   55.7221 H   0  0  0  0  0  0  0  0  0  0  0  0
   32.8807   32.4541   55.0448 H   0  0  0  0  0  0  0  0  0  0  0  0
   34.2839   32.3017   53.9602 H   0  0  0  0  0  0  0  0  0  0  0  0
   34.0569   36.7704   55.0211 H   0  0  0  0  0  0  0  0  0  0  0  0
   33.3179   38.0560   56.9594 H   0  0  0  0  0  0  0  0  0  0  0  0
   33.3629   38.8869   59.6191 H   0  0  0  0  0  0  0  0  0  0  0  0
   32.2744   38.9313   58.2115 H   0  0  0  0  0  0  0  0  0  0  0  0
   31.6009   38.9650   59.8588 H   0  0  0  0  0  0  0  0  0  0  0  0
   33.3262   37.1242   62.4686 H   0  0  0  0  0  0  0  0  0  0  0  0
   32.5546   38.3522   64.4551 H   0  0  0  0  0  0  0  0  0  0  0  0
   28.6095   38.5248   62.8364 H   0  0  0  0  0  0  0  0  0  0  0  0
   29.3629   37.2940   60.8444 H   0  0  0  0  0  0  0  0  0  0  0  0
   33.0656   33.1165   57.0100 H   0  0  0  0  0  0  0  0  0  0  0  0
  1  2  1  0  0  0  0
  1 22  1  0  0  0  0
  1 23  1  0  0  0  0
  1 24  1  0  0  0  0
  2  3  1  0  0  0  0
  3 21  2  0  0  0  0
  3  4  1  0  0  0  0
  4  5  2  0  0  0  0
  4 25  1  0  0  0  0
  5  6  1  0  0  0  0
  5 26  1  0  0  0  0
  6 20  2  0  0  0  0
  6  7  1  0  0  0  0
  7  8  1  0  0  0  0
  7  9  2  0  0  0  0
  8 27  1  0  0  0  0
  8 28  1  0  0  0  0
  8 29  1  0  0  0  0
  9 10  1  0  0  0  0
  9 17  1  0  0  0  0
 10 16  2  0  0  0  0
 10 11  1  0  0  0  0
 11 12  2  0  0  0  0
 11 30  1  0  0  0  0
 12 13  1  0  0  0  0
 12 31  1  0  0  0  0
 13 14  1  0  0  0  0
 13 15  2  0  0  0  0
 15 16  1  0  0  0  0
 15 32  1  0  0  0  0
 16 33  1  0  0  0  0
 17 18  2  0  0  0  0
 17 19  1  0  0  0  0
 19 20  1  0  0  0  0
 20 21  1  0  0  0  0
 21 34  1  0  0  0  0
M  END
$$$$
