ZINC000000053229      none
 OpenBabel11202420153D

 28 30  0  0  0  0  0  0  0  0999 V2000
   32.1269   33.2918   60.0465 C   0  0  0  0  0  0  0  0  0  0  0  0
   31.6806   34.1103   61.2306 C   0  0  0  0  0  0  0  0  0  0  0  0
   31.3449   33.5583   62.2580 O   0  0  0  0  0  0  0  0  0  0  0  0
   31.6530   35.5231   61.1446 C   0  0  0  0  0  0  0  0  0  0  0  0
   31.9916   36.2791   60.0684 C   0  0  0  0  0  0  0  0  0  0  0  0
   32.4198   35.8049   58.8771 O   0  0  0  0  0  0  0  0  0  0  0  0
   31.8183   37.7072   60.4151 C   0  0  0  0  0  0  0  0  0  0  0  0
   32.0401   38.6382   59.6683 O   0  0  0  0  0  0  0  0  0  0  0  0
   31.3725   37.8197   61.6801 O   0  0  0  0  0  0  0  0  0  0  0  0
   31.2363   36.4848   62.2269 C   0  0  0  0  0  0  0  0  0  0  0  0
   29.8192   36.2193   62.6624 C   0  0  0  0  0  0  0  0  0  0  0  0
   28.8306   36.2623   61.9620 O   0  0  0  0  0  0  0  0  0  0  0  0
   29.8603   35.8968   64.1011 C   0  0  0  0  0  0  0  0  0  0  0  0
   28.8347   35.5703   64.9913 C   0  0  0  0  0  0  0  0  0  0  0  0
   29.1253   35.3033   66.3153 C   0  0  0  0  0  0  0  0  0  0  0  0
   30.4311   35.3569   66.7707 C   0  0  0  0  0  0  0  0  0  0  0  0
   31.4606   35.6773   65.9070 C   0  0  0  0  0  0  0  0  0  0  0  0
   31.1892   35.9510   64.5645 C   0  0  0  0  0  0  0  0  0  0  0  0
   32.0912   36.3122   63.4548 C   0  0  0  0  0  0  0  0  0  0  0  0
   33.2945   36.4450   63.5189 O   0  0  0  0  0  0  0  0  0  0  0  0
   33.1505   33.5598   59.7848 H   0  0  0  0  0  0  0  0  0  0  0  0
   32.0820   32.2326   60.2993 H   0  0  0  0  0  0  0  0  0  0  0  0
   31.4711   33.4912   59.1991 H   0  0  0  0  0  0  0  0  0  0  0  0
   31.7848   35.2267   58.4326 H   0  0  0  0  0  0  0  0  0  0  0  0
   27.8130   35.5264   64.6441 H   0  0  0  0  0  0  0  0  0  0  0  0
   28.3285   35.0509   66.9992 H   0  0  0  0  0  0  0  0  0  0  0  0
   30.6466   35.1467   67.8079 H   0  0  0  0  0  0  0  0  0  0  0  0
   32.4768   35.7171   66.2706 H   0  0  0  0  0  0  0  0  0  0  0  0
  1  2  1  0  0  0  0
  1 21  1  0  0  0  0
  1 22  1  0  0  0  0
  1 23  1  0  0  0  0
  2  3  2  0  0  0  0
  2  4  1  0  0  0  0
  4 10  1  0  0  0  0
  4  5  2  0  0  0  0
  5  6  1  0  0  0  0
  5  7  1  0  0  0  0
  6 24  1  0  0  0  0
  7  8  2  0  0  0  0
  7  9  1  0  0  0  0
  9 10  1  0  0  0  0
 10 19  1  0  0  0  0
 10 11  1  0  0  0  0
 11 12  2  0  0  0  0
 11 13  1  0  0  0  0
 13 18  2  0  0  0  0
 13 14  1  0  0  0  0
 14 15  2  0  0  0  0
 14 25  1  0  0  0  0
 15 16  1  0  0  0  0
 15 26  1  0  0  0  0
 16 17  2  0  0  0  0
 16 27  1  0  0  0  0
 17 18  1  0  0  0  0
 17 28  1  0  0  0  0
 18 19  1  0  0  0  0
 19 20  2  0  0  0  0
M  END
$$$$
