ZINC000000047405      none
 OpenBabel11202420153D

 32 34  0  0  0  0  0  0  0  0999 V2000
   31.4134   33.9285   62.4762 C   0  0  0  0  0  0  0  0  0  0  0  0
   31.8724   34.4045   61.1220 C   0  0  0  0  0  0  0  0  0  0  0  0
   32.5813   33.5503   60.2956 C   0  0  0  0  0  0  0  0  0  0  0  0
   33.0044   33.9794   59.0549 C   0  0  0  0  0  0  0  0  0  0  0  0
   32.7158   35.2791   58.6334 C   0  0  0  0  0  0  0  0  0  0  0  0
   33.1653   35.7455   57.3056 C   0  0  0  0  0  0  0  0  0  0  0  0
   33.3346   35.0013   56.2363 N   0  0  0  0  0  0  0  0  0  0  0  0
   33.7299   35.7399   55.2599 N   0  0  0  0  0  0  0  0  0  0  0  0
   33.8372   36.9835   55.6694 C   0  0  0  0  0  0  0  0  0  0  0  0
   34.2676   38.1383   54.8545 C   0  0  0  0  0  0  0  0  0  0  0  0
   34.6165   37.9696   53.5086 C   0  0  0  0  0  0  0  0  0  0  0  0
   35.0075   39.0841   52.7882 C   0  0  0  0  0  0  0  0  0  0  0  0
   35.0519   40.3158   53.4169 C   0  0  0  0  0  0  0  0  0  0  0  0
   34.7227   40.4441   54.6877 N   0  0  0  0  0  0  0  0  0  0  0  0
   34.3390   39.4148   55.4144 C   0  0  0  0  0  0  0  0  0  0  0  0
   33.4826   37.0126   56.9702 O   0  0  0  0  0  0  0  0  0  0  0  0
   31.9998   36.1353   59.4718 C   0  0  0  0  0  0  0  0  0  0  0  0
   31.6830   37.5392   59.0251 C   0  0  0  0  0  0  0  0  0  0  0  0
   31.5826   35.6931   60.7104 C   0  0  0  0  0  0  0  0  0  0  0  0
   32.1835   34.1436   63.2170 H   0  0  0  0  0  0  0  0  0  0  0  0
   30.4924   34.4433   62.7493 H   0  0  0  0  0  0  0  0  0  0  0  0
   31.2327   32.8541   62.4416 H   0  0  0  0  0  0  0  0  0  0  0  0
   32.8077   32.5469   60.6246 H   0  0  0  0  0  0  0  0  0  0  0  0
   33.5577   33.3120   58.4110 H   0  0  0  0  0  0  0  0  0  0  0  0
   34.5772   36.9955   53.0441 H   0  0  0  0  0  0  0  0  0  0  0  0
   35.2798   38.9928   51.7471 H   0  0  0  0  0  0  0  0  0  0  0  0
   35.3606   41.1866   52.8577 H   0  0  0  0  0  0  0  0  0  0  0  0
   34.0778   39.5597   56.4522 H   0  0  0  0  0  0  0  0  0  0  0  0
   32.4868   38.2083   59.3319 H   0  0  0  0  0  0  0  0  0  0  0  0
   31.5857   37.5617   57.9397 H   0  0  0  0  0  0  0  0  0  0  0  0
   30.7470   37.8629   59.4806 H   0  0  0  0  0  0  0  0  0  0  0  0
   31.0284   36.3543   61.3600 H   0  0  0  0  0  0  0  0  0  0  0  0
  1  2  1  0  0  0  0
  1 20  1  0  0  0  0
  1 21  1  0  0  0  0
  1 22  1  0  0  0  0
  2 19  2  0  0  0  0
  2  3  1  0  0  0  0
  3  4  2  0  0  0  0
  3 23  1  0  0  0  0
  4  5  1  0  0  0  0
  4 24  1  0  0  0  0
  5  6  1  0  0  0  0
  5 17  2  0  0  0  0
  6 16  1  0  0  0  0
  6  7  2  0  0  0  0
  7  8  1  0  0  0  0
  8  9  2  0  0  0  0
  9 10  1  0  0  0  0
  9 16  1  0  0  0  0
 10 15  2  0  0  0  0
 10 11  1  0  0  0  0
 11 12  2  0  0  0  0
 11 25  1  0  0  0  0
 12 13  1  0  0  0  0
 12 26  1  0  0  0  0
 13 14  2  0  0  0  0
 13 27  1  0  0  0  0
 14 15  1  0  0  0  0
 15 28  1  0  0  0  0
 17 18  1  0  0  0  0
 17 19  1  0  0  0  0
 18 29  1  0  0  0  0
 18 30  1  0  0  0  0
 18 31  1  0  0  0  0
 19 32  1  0  0  0  0
M  END
$$$$
