ZINC000000002115      none
 OpenBabel11202420153D

 32 31  0  0  0  0  0  0  0  0999 V2000
   28.7562   36.4451   62.0512 C   0  0  0  0  0  0  0  0  0  0  0  0
   30.0823   36.9425   61.4721 C   0  0  0  0  0  0  0  0  0  0  0  0
   31.1782   36.8253   62.5332 C   0  0  0  0  0  0  0  0  0  0  0  0
   32.5041   37.3227   61.9541 C   0  0  0  0  0  0  0  0  0  0  0  0
   31.3504   35.0909   63.0356 S   0  0  0  0  0  0  0  0  0  0  0  0
   32.6263   34.9183   63.6371 O   0  0  0  0  0  0  0  0  0  0  0  0
   30.1864   34.7105   63.7564 O   0  0  0  0  0  0  0  0  0  0  0  0
   31.3451   34.2352   61.4361 C   0  0  0  0  0  0  0  0  0  0  0  0
   31.4845   32.7285   61.6632 C   0  0  0  0  0  0  0  0  0  0  0  0
   30.7331   37.8313   63.9757 S   0  0  0  0  0  0  0  0  0  0  0  0
   30.6033   39.1844   63.5613 O   0  0  0  0  0  0  0  0  0  0  0  0
   29.6494   37.2044   64.6478 O   0  0  0  0  0  0  0  0  0  0  0  0
   32.2171   37.6830   65.0082 C   0  0  0  0  0  0  0  0  0  0  0  0
   32.0235   38.4839   66.2975 C   0  0  0  0  0  0  0  0  0  0  0  0
   28.0033   36.4180   61.2636 H   0  0  0  0  0  0  0  0  0  0  0  0
   28.8912   35.4435   62.4595 H   0  0  0  0  0  0  0  0  0  0  0  0
   28.4299   37.1193   62.8429 H   0  0  0  0  0  0  0  0  0  0  0  0
   29.9787   37.9848   61.1702 H   0  0  0  0  0  0  0  0  0  0  0  0
   30.3497   36.3382   60.6053 H   0  0  0  0  0  0  0  0  0  0  0  0
   32.7715   36.7183   61.0874 H   0  0  0  0  0  0  0  0  0  0  0  0
   33.2849   37.2392   62.7101 H   0  0  0  0  0  0  0  0  0  0  0  0
   32.4007   38.3650   61.6522 H   0  0  0  0  0  0  0  0  0  0  0  0
   30.4080   34.4393   60.9181 H   0  0  0  0  0  0  0  0  0  0  0  0
   32.1794   34.5902   60.8312 H   0  0  0  0  0  0  0  0  0  0  0  0
   32.4214   32.5243   62.1814 H   0  0  0  0  0  0  0  0  0  0  0  0
   30.6500   32.3736   62.2681 H   0  0  0  0  0  0  0  0  0  0  0  0
   31.4812   32.2144   60.7022 H   0  0  0  0  0  0  0  0  0  0  0  0
   32.3856   36.6345   65.2538 H   0  0  0  0  0  0  0  0  0  0  0  0
   33.0782   38.0719   64.4648 H   0  0  0  0  0  0  0  0  0  0  0  0
   31.1623   38.0950   66.8408 H   0  0  0  0  0  0  0  0  0  0  0  0
   32.9152   38.3949   66.9179 H   0  0  0  0  0  0  0  0  0  0  0  0
   31.8550   39.5324   66.0519 H   0  0  0  0  0  0  0  0  0  0  0  0
  1  2  1  0  0  0  0
  1 15  1  0  0  0  0
  1 16  1  0  0  0  0
  1 17  1  0  0  0  0
  2  3  1  0  0  0  0
  2 18  1  0  0  0  0
  2 19  1  0  0  0  0
  3  4  1  0  0  0  0
  3  5  1  0  0  0  0
  3 10  1  0  0  0  0
  4 20  1  0  0  0  0
  4 21  1  0  0  0  0
  4 22  1  0  0  0  0
  5  6  2  0  0  0  0
  5  7  2  0  0  0  0
  5  8  1  0  0  0  0
  8  9  1  0  0  0  0
  8 23  1  0  0  0  0
  8 24  1  0  0  0  0
  9 25  1  0  0  0  0
  9 26  1  0  0  0  0
  9 27  1  0  0  0  0
 10 11  2  0  0  0  0
 10 12  2  0  0  0  0
 10 13  1  0  0  0  0
 13 14  1  0  0  0  0
 13 28  1  0  0  0  0
 13 29  1  0  0  0  0
 14 30  1  0  0  0  0
 14 31  1  0  0  0  0
 14 32  1  0  0  0  0
M  END
$$$$
