ZINC000000030151      none
 OpenBabel11202420163D

 38 40  0  0  0  0  0  0  0  0999 V2000
   31.9673   36.5658   60.1050 O   0  0  0  0  0  0  0  0  0  0  0  0
   31.9804   37.6501   60.6483 C   0  0  0  0  0  0  0  0  0  0  0  0
   31.4632   37.7936   62.0565 C   0  0  0  0  0  0  0  0  0  0  0  0
   32.2799   36.9010   62.9931 C   0  0  0  0  0  0  0  0  0  0  0  0
   32.1211   37.3835   64.4120 C   0  0  0  0  0  0  0  0  0  0  0  0
   33.1450   37.2006   65.3227 C   0  0  0  0  0  0  0  0  0  0  0  0
   33.0012   37.6476   66.6230 C   0  0  0  0  0  0  0  0  0  0  0  0
   31.8298   38.2678   67.0151 C   0  0  0  0  0  0  0  0  0  0  0  0
   30.8040   38.4459   66.1057 C   0  0  0  0  0  0  0  0  0  0  0  0
   30.9497   38.0037   64.8042 C   0  0  0  0  0  0  0  0  0  0  0  0
   31.7887   35.4800   62.8879 C   0  0  0  0  0  0  0  0  0  0  0  0
   30.7829   35.0329   63.7238 C   0  0  0  0  0  0  0  0  0  0  0  0
   30.3290   33.7309   63.6239 C   0  0  0  0  0  0  0  0  0  0  0  0
   30.8883   32.8733   62.6952 C   0  0  0  0  0  0  0  0  0  0  0  0
   31.8979   33.3190   61.8629 C   0  0  0  0  0  0  0  0  0  0  0  0
   32.3481   34.6225   61.9592 C   0  0  0  0  0  0  0  0  0  0  0  0
   32.4574   38.7267   59.9927 N   0  0  0  0  0  0  0  0  0  0  0  0
   32.9342   38.5945   58.6937 C   0  0  0  0  0  0  0  0  0  0  0  0
   33.4125   39.5624   57.9763 N   0  0  0  0  0  0  0  0  0  0  0  0
   33.8263   39.2571   56.7607 C   0  0  0  0  0  0  0  0  0  0  0  0
   33.6812   37.9720   56.4317 C   0  0  0  0  0  0  0  0  0  0  0  0
   32.9685   37.1331   57.8071 S   0  0  0  0  0  0  0  0  0  0  0  0
   30.4157   37.4944   62.0912 H   0  0  0  0  0  0  0  0  0  0  0  0
   31.5550   38.8326   62.3732 H   0  0  0  0  0  0  0  0  0  0  0  0
   33.3317   36.9437   62.7103 H   0  0  0  0  0  0  0  0  0  0  0  0
   34.0584   36.7122   65.0175 H   0  0  0  0  0  0  0  0  0  0  0  0
   33.8024   37.5081   67.3336 H   0  0  0  0  0  0  0  0  0  0  0  0
   31.7157   38.6130   68.0321 H   0  0  0  0  0  0  0  0  0  0  0  0
   29.8885   38.9302   66.4122 H   0  0  0  0  0  0  0  0  0  0  0  0
   30.1482   38.1425   64.0938 H   0  0  0  0  0  0  0  0  0  0  0  0
   30.3488   35.7015   64.4523 H   0  0  0  0  0  0  0  0  0  0  0  0
   29.5405   33.3825   64.2745 H   0  0  0  0  0  0  0  0  0  0  0  0
   30.5369   31.8548   62.6202 H   0  0  0  0  0  0  0  0  0  0  0  0
   32.3352   32.6489   61.1375 H   0  0  0  0  0  0  0  0  0  0  0  0
   33.1371   34.9707   61.3090 H   0  0  0  0  0  0  0  0  0  0  0  0
   32.4678   39.5939   60.4272 H   0  0  0  0  0  0  0  0  0  0  0  0
   34.2439   39.9891   56.0853 H   0  0  0  0  0  0  0  0  0  0  0  0
   33.9533   37.5245   55.4871 H   0  0  0  0  0  0  0  0  0  0  0  0
  1  2  2  0  0  0  0
  2  3  1  0  0  0  0
  2 17  1  0  0  0  0
  3  4  1  0  0  0  0
  3 23  1  0  0  0  0
  3 24  1  0  0  0  0
  4  5  1  0  0  0  0
  4 11  1  0  0  0  0
  4 25  1  0  0  0  0
  5 10  2  0  0  0  0
  5  6  1  0  0  0  0
  6  7  2  0  0  0  0
  6 26  1  0  0  0  0
  7  8  1  0  0  0  0
  7 27  1  0  0  0  0
  8  9  2  0  0  0  0
  8 28  1  0  0  0  0
  9 10  1  0  0  0  0
  9 29  1  0  0  0  0
 10 30  1  0  0  0  0
 11 16  2  0  0  0  0
 11 12  1  0  0  0  0
 12 13  2  0  0  0  0
 12 31  1  0  0  0  0
 13 14  1  0  0  0  0
 13 32  1  0  0  0  0
 14 15  2  0  0  0  0
 14 33  1  0  0  0  0
 15 16  1  0  0  0  0
 15 34  1  0  0  0  0
 16 35  1  0  0  0  0
 17 18  1  0  0  0  0
 17 36  1  0  0  0  0
 18 22  1  0  0  0  0
 18 19  2  0  0  0  0
 19 20  1  0  0  0  0
 20 21  2  0  0  0  0
 20 37  1  0  0  0  0
 21 22  1  0  0  0  0
 21 38  1  0  0  0  0
M  END
$$$$
