ZINC000000004221      none
 OpenBabel11202420153D

 24 25  0  0  0  0  0  0  0  0999 V2000
   29.2737   36.4823   59.8308 O   0  0  0  0  0  0  0  0  0  0  0  0
   29.6067   36.3339   60.9911 C   0  0  0  0  0  0  0  0  0  0  0  0
   28.7015   36.9153   62.3930 S   0  0  0  0  0  0  0  0  0  0  0  0
   29.8661   36.2880   63.6440 C   0  0  0  0  0  0  0  0  0  0  0  0
   30.9691   35.6142   62.8172 C   0  0  0  0  0  0  0  0  0  0  0  0
   30.7082   35.7098   61.3988 N   0  0  0  0  0  0  0  0  0  0  0  0
   31.6401   35.1304   60.4281 C   0  0  0  0  0  0  0  0  0  0  0  0
   32.1612   36.2162   59.5222 C   0  0  0  0  0  0  0  0  0  0  0  0
   32.5241   35.9168   58.2224 C   0  0  0  0  0  0  0  0  0  0  0  0
   32.9976   36.9137   57.3899 C   0  0  0  0  0  0  0  0  0  0  0  0
   33.1179   38.2080   57.8605 C   0  0  0  0  0  0  0  0  0  0  0  0
   32.7598   38.5062   59.1619 C   0  0  0  0  0  0  0  0  0  0  0  0
   32.2814   37.5103   59.9927 C   0  0  0  0  0  0  0  0  0  0  0  0
   29.3762   35.5612   64.2921 H   0  0  0  0  0  0  0  0  0  0  0  0
   30.2767   37.1082   64.2329 H   0  0  0  0  0  0  0  0  0  0  0  0
   31.9222   36.0954   63.0367 H   0  0  0  0  0  0  0  0  0  0  0  0
   31.0314   34.5626   63.0973 H   0  0  0  0  0  0  0  0  0  0  0  0
   32.4733   34.6670   60.9563 H   0  0  0  0  0  0  0  0  0  0  0  0
   31.1232   34.3776   59.8329 H   0  0  0  0  0  0  0  0  0  0  0  0
   32.4344   34.9048   57.8560 H   0  0  0  0  0  0  0  0  0  0  0  0
   33.2777   36.6805   56.3733 H   0  0  0  0  0  0  0  0  0  0  0  0
   33.4920   38.9859   57.2115 H   0  0  0  0  0  0  0  0  0  0  0  0
   32.8541   39.5173   59.5297 H   0  0  0  0  0  0  0  0  0  0  0  0
   32.0021   37.7434   61.0096 H   0  0  0  0  0  0  0  0  0  0  0  0
  1  2  2  0  0  0  0
  2  6  1  0  0  0  0
  2  3  1  0  0  0  0
  3  4  1  0  0  0  0
  4  5  1  0  0  0  0
  4 14  1  0  0  0  0
  4 15  1  0  0  0  0
  5  6  1  0  0  0  0
  5 16  1  0  0  0  0
  5 17  1  0  0  0  0
  6  7  1  0  0  0  0
  7  8  1  0  0  0  0
  7 18  1  0  0  0  0
  7 19  1  0  0  0  0
  8 13  2  0  0  0  0
  8  9  1  0  0  0  0
  9 10  2  0  0  0  0
  9 20  1  0  0  0  0
 10 11  1  0  0  0  0
 10 21  1  0  0  0  0
 11 12  2  0  0  0  0
 11 22  1  0  0  0  0
 12 13  1  0  0  0  0
 12 23  1  0  0  0  0
 13 24  1  0  0  0  0
M  END
$$$$
