ZINC000000046872      none
 OpenBabel11202420153D

 34 36  0  0  0  0  0  0  0  0999 V2000
   32.4276   35.0899   52.6559 C   0  0  0  0  0  0  0  0  0  0  0  0
   33.7446   35.4820   53.2747 C   0  0  0  0  0  0  0  0  0  0  0  0
   34.5468   34.6267   53.5868 O   0  0  0  0  0  0  0  0  0  0  0  0
   34.0560   36.8950   53.4996 C   0  0  0  0  0  0  0  0  0  0  0  0
   34.7102   37.6392   52.5071 C   0  0  0  0  0  0  0  0  0  0  0  0
   35.0012   38.9684   52.7230 C   0  0  0  0  0  0  0  0  0  0  0  0
   34.6462   39.5790   53.9305 C   0  0  0  0  0  0  0  0  0  0  0  0
   33.9997   38.8509   54.9165 C   0  0  0  0  0  0  0  0  0  0  0  0
   33.7060   37.5116   54.7148 C   0  0  0  0  0  0  0  0  0  0  0  0
   33.0621   36.7805   55.7087 N   0  0  0  0  0  0  0  0  0  0  0  0
   33.2481   37.0968   57.0056 C   0  0  0  0  0  0  0  0  0  0  0  0
   33.9788   38.0215   57.3074 O   0  0  0  0  0  0  0  0  0  0  0  0
   32.5681   36.3247   58.0552 C   0  0  0  0  0  0  0  0  0  0  0  0
   32.6927   34.9668   58.3024 C   0  0  0  0  0  0  0  0  0  0  0  0
   33.6790   33.8262   57.4422 Cl  0  0  0  0  0  0  0  0  0  0  0  0
   31.8555   34.7114   59.3925 C   0  0  0  0  0  0  0  0  0  0  0  0
   31.2945   35.8407   59.7414 N   0  0  0  0  0  0  0  0  0  0  0  0
   31.6898   36.8030   58.9881 N   0  0  0  0  0  0  0  0  0  0  0  0
   31.2629   38.1992   59.1079 C   0  0  0  0  0  0  0  0  0  0  0  0
   35.0434   40.8826   53.8902 O   0  0  0  0  0  0  0  0  0  0  0  0
   35.2730   41.1738   52.4992 C   0  0  0  0  0  0  0  0  0  0  0  0
   35.6194   39.8962   51.9330 O   0  0  0  0  0  0  0  0  0  0  0  0
   32.5329   35.0509   51.5717 H   0  0  0  0  0  0  0  0  0  0  0  0
   32.1291   34.1096   53.0274 H   0  0  0  0  0  0  0  0  0  0  0  0
   31.6682   35.8256   52.9210 H   0  0  0  0  0  0  0  0  0  0  0  0
   34.9859   37.1705   51.5740 H   0  0  0  0  0  0  0  0  0  0  0  0
   33.7278   39.3274   55.8468 H   0  0  0  0  0  0  0  0  0  0  0  0
   32.4794   36.0432   55.4682 H   0  0  0  0  0  0  0  0  0  0  0  0
   31.6992   33.7520   59.8628 H   0  0  0  0  0  0  0  0  0  0  0  0
   30.4610   38.3963   58.3964 H   0  0  0  0  0  0  0  0  0  0  0  0
   30.9037   38.3837   60.1203 H   0  0  0  0  0  0  0  0  0  0  0  0
   32.1062   38.8565   58.8961 H   0  0  0  0  0  0  0  0  0  0  0  0
   34.3675   41.5650   52.0356 H   0  0  0  0  0  0  0  0  0  0  0  0
   36.0971   41.8784   52.3867 H   0  0  0  0  0  0  0  0  0  0  0  0
  1  2  1  0  0  0  0
  1 23  1  0  0  0  0
  1 24  1  0  0  0  0
  1 25  1  0  0  0  0
  2  3  2  0  0  0  0
  2  4  1  0  0  0  0
  4  9  2  0  0  0  0
  4  5  1  0  0  0  0
  5  6  2  0  0  0  0
  5 26  1  0  0  0  0
  6 22  1  0  0  0  0
  6  7  1  0  0  0  0
  7  8  2  0  0  0  0
  7 20  1  0  0  0  0
  8  9  1  0  0  0  0
  8 27  1  0  0  0  0
  9 10  1  0  0  0  0
 10 11  1  0  0  0  0
 10 28  1  0  0  0  0
 11 12  2  0  0  0  0
 11 13  1  0  0  0  0
 13 18  1  0  0  0  0
 13 14  2  0  0  0  0
 14 15  1  0  0  0  0
 14 16  1  0  0  0  0
 16 17  2  0  0  0  0
 16 29  1  0  0  0  0
 17 18  1  0  0  0  0
 18 19  1  0  0  0  0
 19 30  1  0  0  0  0
 19 31  1  0  0  0  0
 19 32  1  0  0  0  0
 20 21  1  0  0  0  0
 21 22  1  0  0  0  0
 21 33  1  0  0  0  0
 21 34  1  0  0  0  0
M  END
$$$$
