ZINC000000031289      none
 OpenBabel11202420163D

 39 41  0  0  0  0  0  0  0  0999 V2000
   29.9091   36.9110   68.4344 C   0  0  0  0  0  0  0  0  0  0  0  0
   30.1773   37.6165   67.2212 O   0  0  0  0  0  0  0  0  0  0  0  0
   30.5000   36.8711   66.1329 C   0  0  0  0  0  0  0  0  0  0  0  0
   29.5012   36.4258   65.2773 C   0  0  0  0  0  0  0  0  0  0  0  0
   29.8228   35.6648   64.1749 C   0  0  0  0  0  0  0  0  0  0  0  0
   31.1579   35.3483   63.9097 C   0  0  0  0  0  0  0  0  0  0  0  0
   31.5046   34.5386   62.7261 C   0  0  0  0  0  0  0  0  0  0  0  0
   31.5530   33.3271   62.8116 O   0  0  0  0  0  0  0  0  0  0  0  0
   31.7676   35.1423   61.5502 N   0  0  0  0  0  0  0  0  0  0  0  0
   31.7056   36.6093   61.4346 C   0  0  0  0  0  0  0  0  0  0  0  0
   32.0198   37.2021   60.0804 C   0  0  0  0  0  0  0  0  0  0  0  0
   31.9928   38.5616   59.8710 C   0  0  0  0  0  0  0  0  0  0  0  0
   32.2806   39.0685   58.6150 C   0  0  0  0  0  0  0  0  0  0  0  0
   32.5943   38.2100   57.5770 C   0  0  0  0  0  0  0  0  0  0  0  0
   32.6221   36.8448   57.7847 C   0  0  0  0  0  0  0  0  0  0  0  0
   32.3336   36.3313   59.0424 C   0  0  0  0  0  0  0  0  0  0  0  0
   32.3555   34.9561   59.2723 N   0  0  0  0  0  0  0  0  0  0  0  0
   32.0847   34.4121   60.4656 C   0  0  0  0  0  0  0  0  0  0  0  0
   32.1452   32.7080   60.6184 S   0  0  0  0  0  0  0  0  0  0  0  0
   32.1638   35.8009   64.7678 C   0  0  0  0  0  0  0  0  0  0  0  0
   31.8340   36.5591   65.8744 C   0  0  0  0  0  0  0  0  0  0  0  0
   32.8103   37.0006   66.7118 O   0  0  0  0  0  0  0  0  0  0  0  0
   33.3901   38.2733   66.4183 C   0  0  0  0  0  0  0  0  0  0  0  0
   30.7897   36.3372   68.7232 H   0  0  0  0  0  0  0  0  0  0  0  0
   29.6651   37.6233   69.2227 H   0  0  0  0  0  0  0  0  0  0  0  0
   29.0681   36.2344   68.2831 H   0  0  0  0  0  0  0  0  0  0  0  0
   28.4694   36.6735   65.4786 H   0  0  0  0  0  0  0  0  0  0  0  0
   29.0436   35.3168   63.5130 H   0  0  0  0  0  0  0  0  0  0  0  0
   30.7026   36.9269   61.7197 H   0  0  0  0  0  0  0  0  0  0  0  0
   32.4059   37.0332   62.1545 H   0  0  0  0  0  0  0  0  0  0  0  0
   31.7477   39.2305   60.6826 H   0  0  0  0  0  0  0  0  0  0  0  0
   32.2607   40.1349   58.4459 H   0  0  0  0  0  0  0  0  0  0  0  0
   32.8186   38.6091   56.5989 H   0  0  0  0  0  0  0  0  0  0  0  0
   32.8675   36.1783   56.9711 H   0  0  0  0  0  0  0  0  0  0  0  0
   32.5766   34.3666   58.5343 H   0  0  0  0  0  0  0  0  0  0  0  0
   33.1968   35.5581   64.5666 H   0  0  0  0  0  0  0  0  0  0  0  0
   33.8442   38.2459   65.4276 H   0  0  0  0  0  0  0  0  0  0  0  0
   32.6154   39.0396   66.4416 H   0  0  0  0  0  0  0  0  0  0  0  0
   34.1531   38.5051   67.1614 H   0  0  0  0  0  0  0  0  0  0  0  0
  1  2  1  0  0  0  0
  1 24  1  0  0  0  0
  1 25  1  0  0  0  0
  1 26  1  0  0  0  0
  2  3  1  0  0  0  0
  3 21  2  0  0  0  0
  3  4  1  0  0  0  0
  4  5  2  0  0  0  0
  4 27  1  0  0  0  0
  5  6  1  0  0  0  0
  5 28  1  0  0  0  0
  6  7  1  0  0  0  0
  6 20  2  0  0  0  0
  7  8  2  0  0  0  0
  7  9  1  0  0  0  0
  9 18  1  0  0  0  0
  9 10  1  0  0  0  0
 10 11  1  0  0  0  0
 10 29  1  0  0  0  0
 10 30  1  0  0  0  0
 11 16  2  0  0  0  0
 11 12  1  0  0  0  0
 12 13  2  0  0  0  0
 12 31  1  0  0  0  0
 13 14  1  0  0  0  0
 13 32  1  0  0  0  0
 14 15  2  0  0  0  0
 14 33  1  0  0  0  0
 15 16  1  0  0  0  0
 15 34  1  0  0  0  0
 16 17  1  0  0  0  0
 17 18  1  0  0  0  0
 17 35  1  0  0  0  0
 18 19  2  0  0  0  0
 20 21  1  0  0  0  0
 20 36  1  0  0  0  0
 21 22  1  0  0  0  0
 22 23  1  0  0  0  0
 23 37  1  0  0  0  0
 23 38  1  0  0  0  0
 23 39  1  0  0  0  0
M  END
$$$$
