ZINC000000038012      none
 OpenBabel11202420153D

 33 36  0  0  0  0  0  0  0  0999 V2000
   32.7247   38.0019   57.3953 C   0  0  0  0  0  0  0  0  0  0  0  0
   32.4767   36.7037   58.1195 C   0  0  0  0  0  0  0  0  0  0  0  0
   32.6043   35.5012   57.6361 N   0  0  0  0  0  0  0  0  0  0  0  0
   32.3380   34.6382   58.4441 O   0  0  0  0  0  0  0  0  0  0  0  0
   31.9822   35.1569   59.6227 C   0  0  0  0  0  0  0  0  0  0  0  0
   32.0576   36.5454   59.4623 C   0  0  0  0  0  0  0  0  0  0  0  0
   31.7277   37.4187   60.5789 C   0  0  0  0  0  0  0  0  0  0  0  0
   31.7919   38.6271   60.4424 O   0  0  0  0  0  0  0  0  0  0  0  0
   31.3511   36.8969   61.7630 N   0  0  0  0  0  0  0  0  0  0  0  0
   31.0400   37.7607   62.8199 C   0  0  0  0  0  0  0  0  0  0  0  0
   32.0321   38.1638   63.7043 C   0  0  0  0  0  0  0  0  0  0  0  0
   31.7229   39.0202   64.7427 C   0  0  0  0  0  0  0  0  0  0  0  0
   30.4251   39.4676   64.9090 C   0  0  0  0  0  0  0  0  0  0  0  0
   29.4338   39.0635   64.0334 C   0  0  0  0  0  0  0  0  0  0  0  0
   29.7375   38.2118   62.9896 C   0  0  0  0  0  0  0  0  0  0  0  0
   31.2640   35.5306   61.9625 C   0  0  0  0  0  0  0  0  0  0  0  0
   30.8710   35.0318   63.2010 C   0  0  0  0  0  0  0  0  0  0  0  0
   30.7833   33.6717   63.4029 C   0  0  0  0  0  0  0  0  0  0  0  0
   31.0841   32.7846   62.3793 C   0  0  0  0  0  0  0  0  0  0  0  0
   31.4754   33.2543   61.1463 C   0  0  0  0  0  0  0  0  0  0  0  0
   31.5751   34.6312   60.9264 C   0  0  0  0  0  0  0  0  0  0  0  0
   33.7659   38.2971   57.5249 H   0  0  0  0  0  0  0  0  0  0  0  0
   32.5133   37.8719   56.3339 H   0  0  0  0  0  0  0  0  0  0  0  0
   32.0742   38.7755   57.8032 H   0  0  0  0  0  0  0  0  0  0  0  0
   33.0451   37.8115   63.5773 H   0  0  0  0  0  0  0  0  0  0  0  0
   32.4949   39.3376   65.4280 H   0  0  0  0  0  0  0  0  0  0  0  0
   30.1850   40.1336   65.7246 H   0  0  0  0  0  0  0  0  0  0  0  0
   28.4212   39.4146   64.1660 H   0  0  0  0  0  0  0  0  0  0  0  0
   28.9631   37.8971   62.3058 H   0  0  0  0  0  0  0  0  0  0  0  0
   30.6340   35.7123   64.0055 H   0  0  0  0  0  0  0  0  0  0  0  0
   30.4779   33.2926   64.3670 H   0  0  0  0  0  0  0  0  0  0  0  0
   31.0112   31.7208   62.5512 H   0  0  0  0  0  0  0  0  0  0  0  0
   31.7090   32.5609   60.3520 H   0  0  0  0  0  0  0  0  0  0  0  0
  1  2  1  0  0  0  0
  1 22  1  0  0  0  0
  1 23  1  0  0  0  0
  1 24  1  0  0  0  0
  2  6  1  0  0  0  0
  2  3  2  0  0  0  0
  3  4  1  0  0  0  0
  4  5  1  0  0  0  0
  5 21  1  0  0  0  0
  5  6  2  0  0  0  0
  6  7  1  0  0  0  0
  7  8  2  0  0  0  0
  7  9  1  0  0  0  0
  9 10  1  0  0  0  0
  9 16  1  0  0  0  0
 10 15  2  0  0  0  0
 10 11  1  0  0  0  0
 11 12  2  0  0  0  0
 11 25  1  0  0  0  0
 12 13  1  0  0  0  0
 12 26  1  0  0  0  0
 13 14  2  0  0  0  0
 13 27  1  0  0  0  0
 14 15  1  0  0  0  0
 14 28  1  0  0  0  0
 15 29  1  0  0  0  0
 16 21  2  0  0  0  0
 16 17  1  0  0  0  0
 17 18  2  0  0  0  0
 17 30  1  0  0  0  0
 18 19  1  0  0  0  0
 18 31  1  0  0  0  0
 19 20  2  0  0  0  0
 19 32  1  0  0  0  0
 20 21  1  0  0  0  0
 20 33  1  0  0  0  0
M  END
$$$$
