ZINC000000032940      none
 OpenBabel11202420153D

 33 35  0  0  0  0  0  0  0  0999 V2000
   32.3785   37.5403   61.1086 C   0  0  0  0  0  0  0  0  0  0  0  0
   31.7578   36.3626   61.8148 C   0  0  0  0  0  0  0  0  0  0  0  0
   31.5831   35.1865   61.1603 C   0  0  0  0  0  0  0  0  0  0  0  0
   31.0068   34.0954   61.8357 C   0  0  0  0  0  0  0  0  0  0  0  0
   30.6192   34.2141   63.1197 C   0  0  0  0  0  0  0  0  0  0  0  0
   30.7806   35.3938   63.8005 N   0  0  0  0  0  0  0  0  0  0  0  0
   31.3466   36.4756   63.1658 C   0  0  0  0  0  0  0  0  0  0  0  0
   31.5147   37.6218   63.7918 N   0  0  0  0  0  0  0  0  0  0  0  0
   31.0880   37.7361   65.1934 C   0  0  0  0  0  0  0  0  0  0  0  0
   30.0719   38.8766   65.2804 C   0  0  0  0  0  0  0  0  0  0  0  0
   28.9754   38.5879   64.4609 F   0  0  0  0  0  0  0  0  0  0  0  0
   29.6406   39.0169   66.6040 F   0  0  0  0  0  0  0  0  0  0  0  0
   30.6704   40.0678   64.8562 F   0  0  0  0  0  0  0  0  0  0  0  0
   32.3089   38.1405   66.0221 C   0  0  0  0  0  0  0  0  0  0  0  0
   32.7991   39.3674   65.5622 F   0  0  0  0  0  0  0  0  0  0  0  0
   31.9411   38.2596   67.3667 F   0  0  0  0  0  0  0  0  0  0  0  0
   33.3028   37.1642   65.8951 F   0  0  0  0  0  0  0  0  0  0  0  0
   30.4888   36.5515   65.8250 N   0  0  0  0  0  0  0  0  0  0  0  0
   30.3636   35.4613   65.1222 C   0  0  0  0  0  0  0  0  0  0  0  0
   29.7654   34.2717   65.7458 C   0  0  0  0  0  0  0  0  0  0  0  0
   30.2441   33.6153   66.8408 C   0  0  0  0  0  0  0  0  0  0  0  0
   29.3645   32.5472   67.0885 C   0  0  0  0  0  0  0  0  0  0  0  0
   28.4059   32.5944   66.1393 C   0  0  0  0  0  0  0  0  0  0  0  0
   28.6511   33.6357   65.3314 O   0  0  0  0  0  0  0  0  0  0  0  0
   33.4595   37.5188   61.2474 H   0  0  0  0  0  0  0  0  0  0  0  0
   31.9774   38.4652   61.5231 H   0  0  0  0  0  0  0  0  0  0  0  0
   32.1477   37.4888   60.0446 H   0  0  0  0  0  0  0  0  0  0  0  0
   31.8880   35.0878   60.1289 H   0  0  0  0  0  0  0  0  0  0  0  0
   30.8704   33.1567   61.3192 H   0  0  0  0  0  0  0  0  0  0  0  0
   30.1739   33.3675   63.6211 H   0  0  0  0  0  0  0  0  0  0  0  0
   31.1267   33.8687   67.4093 H   0  0  0  0  0  0  0  0  0  0  0  0
   29.4434   31.8227   67.8855 H   0  0  0  0  0  0  0  0  0  0  0  0
   27.5784   31.9067   66.0459 H   0  0  0  0  0  0  0  0  0  0  0  0
  1  2  1  0  0  0  0
  1 25  1  0  0  0  0
  1 26  1  0  0  0  0
  1 27  1  0  0  0  0
  2  7  1  0  0  0  0
  2  3  2  0  0  0  0
  3  4  1  0  0  0  0
  3 28  1  0  0  0  0
  4  5  2  0  0  0  0
  4 29  1  0  0  0  0
  5  6  1  0  0  0  0
  5 30  1  0  0  0  0
  6 19  1  0  0  0  0
  6  7  1  0  0  0  0
  7  8  2  0  0  0  0
  8  9  1  0  0  0  0
  9 10  1  0  0  0  0
  9 14  1  0  0  0  0
  9 18  1  0  0  0  0
 10 11  1  0  0  0  0
 10 12  1  0  0  0  0
 10 13  1  0  0  0  0
 14 15  1  0  0  0  0
 14 16  1  0  0  0  0
 14 17  1  0  0  0  0
 18 19  2  0  0  0  0
 19 20  1  0  0  0  0
 20 24  1  0  0  0  0
 20 21  2  0  0  0  0
 21 22  1  0  0  0  0
 21 31  1  0  0  0  0
 22 23  2  0  0  0  0
 22 32  1  0  0  0  0
 23 24  1  0  0  0  0
 23 33  1  0  0  0  0
M  END
$$$$
