ZINC000000055238      none
 OpenBabel11202420153D

 27 29  0  0  0  0  0  0  0  0999 V2000
   33.8689   37.2653   55.7884 O   0  0  0  0  0  0  0  0  0  0  0  0
   33.3429   36.4931   56.5644 C   0  0  0  0  0  0  0  0  0  0  0  0
   32.9689   36.7956   57.9620 C   0  0  0  0  0  0  0  0  0  0  0  0
   33.0617   37.9194   58.7672 C   0  0  0  0  0  0  0  0  0  0  0  0
   32.5964   37.8704   60.0720 C   0  0  0  0  0  0  0  0  0  0  0  0
   32.0361   36.7102   60.5730 C   0  0  0  0  0  0  0  0  0  0  0  0
   31.9317   35.5798   59.7775 C   0  0  0  0  0  0  0  0  0  0  0  0
   32.3925   35.6140   58.4712 C   0  0  0  0  0  0  0  0  0  0  0  0
   32.4438   34.6312   57.3684 C   0  0  0  0  0  0  0  0  0  0  0  0
   32.0431   33.4860   57.4203 O   0  0  0  0  0  0  0  0  0  0  0  0
   33.0085   35.2178   56.2975 N   0  0  0  0  0  0  0  0  0  0  0  0
   33.2205   34.5828   55.0641 C   0  0  0  0  0  0  0  0  0  0  0  0
   34.0149   33.4481   54.9939 C   0  0  0  0  0  0  0  0  0  0  0  0
   34.2219   32.8239   53.7775 C   0  0  0  0  0  0  0  0  0  0  0  0
   35.3059   31.2773   53.6832 Br  0  0  0  0  0  0  0  0  0  0  0  0
   33.6381   33.3288   52.6293 C   0  0  0  0  0  0  0  0  0  0  0  0
   32.8453   34.4594   52.6925 C   0  0  0  0  0  0  0  0  0  0  0  0
   32.6291   35.0871   53.9086 C   0  0  0  0  0  0  0  0  0  0  0  0
   31.8447   36.1960   53.9730 O   0  0  0  0  0  0  0  0  0  0  0  0
   33.4989   38.8284   58.3811 H   0  0  0  0  0  0  0  0  0  0  0  0
   32.6720   38.7446   60.7015 H   0  0  0  0  0  0  0  0  0  0  0  0
   31.6769   36.6845   61.5912 H   0  0  0  0  0  0  0  0  0  0  0  0
   31.4928   34.6762   60.1741 H   0  0  0  0  0  0  0  0  0  0  0  0
   34.4719   33.0524   55.8888 H   0  0  0  0  0  0  0  0  0  0  0  0
   33.8020   32.8381   51.6811 H   0  0  0  0  0  0  0  0  0  0  0  0
   32.3907   34.8509   51.7944 H   0  0  0  0  0  0  0  0  0  0  0  0
   31.4794   36.4693   53.1203 H   0  0  0  0  0  0  0  0  0  0  0  0
  1  2  2  0  0  0  0
  2 11  1  0  0  0  0
  2  3  1  0  0  0  0
  3  8  2  0  0  0  0
  3  4  1  0  0  0  0
  4  5  2  0  0  0  0
  4 20  1  0  0  0  0
  5  6  1  0  0  0  0
  5 21  1  0  0  0  0
  6  7  2  0  0  0  0
  6 22  1  0  0  0  0
  7  8  1  0  0  0  0
  7 23  1  0  0  0  0
  8  9  1  0  0  0  0
  9 10  2  0  0  0  0
  9 11  1  0  0  0  0
 11 12  1  0  0  0  0
 12 18  2  0  0  0  0
 12 13  1  0  0  0  0
 13 14  2  0  0  0  0
 13 24  1  0  0  0  0
 14 15  1  0  0  0  0
 14 16  1  0  0  0  0
 16 17  2  0  0  0  0
 16 25  1  0  0  0  0
 17 18  1  0  0  0  0
 17 26  1  0  0  0  0
 18 19  1  0  0  0  0
 19 27  1  0  0  0  0
M  END
$$$$
