ZINC000000049572      none
 OpenBabel11202420153D

 35 38  0  0  0  0  0  0  0  0999 V2000
   32.3308   34.7815   58.5584 O   0  0  0  0  0  0  0  0  0  0  0  0
   32.3912   35.9085   59.0217 C   0  0  0  0  0  0  0  0  0  0  0  0
   32.0178   36.1743   60.3585 C   0  0  0  0  0  0  0  0  0  0  0  0
   32.1001   37.4460   60.8379 C   0  0  0  0  0  0  0  0  0  0  0  0
   31.7061   37.7038   62.2355 C   0  0  0  0  0  0  0  0  0  0  0  0
   30.6617   38.5888   62.5177 C   0  0  0  0  0  0  0  0  0  0  0  0
   30.2968   38.8279   63.8241 C   0  0  0  0  0  0  0  0  0  0  0  0
   30.9631   38.1924   64.8654 C   0  0  0  0  0  0  0  0  0  0  0  0
   32.0027   37.3076   64.5912 C   0  0  0  0  0  0  0  0  0  0  0  0
   32.3719   37.0599   63.2815 C   0  0  0  0  0  0  0  0  0  0  0  0
   32.6601   36.6715   65.5996 O   0  0  0  0  0  0  0  0  0  0  0  0
   32.5117   37.2232   66.9124 C   0  0  0  0  0  0  0  0  0  0  0  0
   31.0235   37.5175   67.1442 C   0  0  0  0  0  0  0  0  0  0  0  0
   30.5900   38.4496   66.1478 O   0  0  0  0  0  0  0  0  0  0  0  0
   32.5255   38.4740   60.0873 O   0  0  0  0  0  0  0  0  0  0  0  0
   32.9038   38.3201   58.8012 C   0  0  0  0  0  0  0  0  0  0  0  0
   33.3400   39.4059   58.0519 C   0  0  0  0  0  0  0  0  0  0  0  0
   33.7261   39.2261   56.7406 C   0  0  0  0  0  0  0  0  0  0  0  0
   33.6747   37.9703   56.1535 C   0  0  0  0  0  0  0  0  0  0  0  0
   34.0884   37.7990   54.7426 N   0  0  0  0  0  0  0  0  0  0  0  0
   34.4728   38.7595   54.0998 O   0  0  0  0  0  0  0  0  0  0  0  0
   34.0492   36.6966   54.2261 O   0  0  0  0  0  0  0  0  0  0  0  0
   33.2457   36.8808   56.8797 C   0  0  0  0  0  0  0  0  0  0  0  0
   32.8577   37.0490   58.2078 C   0  0  0  0  0  0  0  0  0  0  0  0
   31.6694   35.3745   60.9951 H   0  0  0  0  0  0  0  0  0  0  0  0
   30.1408   39.0844   61.7118 H   0  0  0  0  0  0  0  0  0  0  0  0
   29.4894   39.5120   64.0403 H   0  0  0  0  0  0  0  0  0  0  0  0
   33.1764   36.3717   63.0679 H   0  0  0  0  0  0  0  0  0  0  0  0
   32.8647   36.5068   67.6543 H   0  0  0  0  0  0  0  0  0  0  0  0
   33.0857   38.1466   66.9903 H   0  0  0  0  0  0  0  0  0  0  0  0
   30.4489   36.5951   67.0593 H   0  0  0  0  0  0  0  0  0  0  0  0
   30.8839   37.9481   68.1357 H   0  0  0  0  0  0  0  0  0  0  0  0
   33.3803   40.3889   58.4973 H   0  0  0  0  0  0  0  0  0  0  0  0
   34.0683   40.0724   56.1633 H   0  0  0  0  0  0  0  0  0  0  0  0
   33.2101   35.9029   56.4227 H   0  0  0  0  0  0  0  0  0  0  0  0
  1  2  2  0  0  0  0
  2 24  1  0  0  0  0
  2  3  1  0  0  0  0
  3  4  2  0  0  0  0
  3 25  1  0  0  0  0
  4  5  1  0  0  0  0
  4 15  1  0  0  0  0
  5 10  2  0  0  0  0
  5  6  1  0  0  0  0
  6  7  2  0  0  0  0
  6 26  1  0  0  0  0
  7  8  1  0  0  0  0
  7 27  1  0  0  0  0
  8 14  1  0  0  0  0
  8  9  2  0  0  0  0
  9 10  1  0  0  0  0
  9 11  1  0  0  0  0
 10 28  1  0  0  0  0
 11 12  1  0  0  0  0
 12 13  1  0  0  0  0
 12 29  1  0  0  0  0
 12 30  1  0  0  0  0
 13 14  1  0  0  0  0
 13 31  1  0  0  0  0
 13 32  1  0  0  0  0
 15 16  1  0  0  0  0
 16 24  2  0  0  0  0
 16 17  1  0  0  0  0
 17 18  2  0  0  0  0
 17 33  1  0  0  0  0
 18 19  1  0  0  0  0
 18 34  1  0  0  0  0
 19 20  1  0  0  0  0
 19 23  2  0  0  0  0
 20 21  2  0  0  0  0
 20 22  2  0  0  0  0
 23 24  1  0  0  0  0
 23 35  1  0  0  0  0
M  END
$$$$
