ZINC000000041295      none
 OpenBabel11202420153D

 30 32  0  0  1  0  0  0  0  0999 V2000
   29.4995   36.3203   63.2000 C   0  0  0  0  0  0  0  0  0  0  0  0
   29.9109   37.4692   62.2770 C   0  0  0  0  0  0  0  0  0  0  0  0
   29.7198   38.8013   63.0046 C   0  0  0  0  0  0  0  0  0  0  0  0
   31.3813   37.3079   61.8860 C   0  0  2  0  0  0  0  0  0  0  0  0
   31.9629   36.9713   62.7442 H   0  0  0  0  0  0  0  0  0  0  0  0
   31.8996   38.5441   61.3947 O   0  0  0  0  0  0  0  0  0  0  0  0
   32.3190   38.4115   60.1141 C   0  0  0  0  0  0  0  0  0  0  0  0
   32.8836   39.3547   59.2645 C   0  0  0  0  0  0  0  0  0  0  0  0
   33.2479   39.0102   57.9730 C   0  0  0  0  0  0  0  0  0  0  0  0
   33.7970   39.9283   57.1487 O   0  0  0  0  0  0  0  0  0  0  0  0
   34.1585   39.6189   55.8939 C   0  0  0  0  0  0  0  0  0  0  0  0
   34.6497   40.4821   55.1890 O   0  0  0  0  0  0  0  0  0  0  0  0
   33.9854   38.3209   55.3694 C   0  0  0  0  0  0  0  0  0  0  0  0
   33.4392   37.3482   56.1432 C   0  0  0  0  0  0  0  0  0  0  0  0
   33.0459   37.6922   57.5126 C   0  0  0  0  0  0  0  0  0  0  0  0
   32.4805   36.7379   58.3560 C   0  0  0  0  0  0  0  0  0  0  0  0
   32.1180   37.0962   59.6529 C   0  0  0  0  0  0  0  0  0  0  0  0
   31.5127   36.3199   60.7467 C   0  0  0  0  0  0  0  0  0  0  0  0
   31.1909   35.1504   60.7373 O   0  0  0  0  0  0  0  0  0  0  0  0
   30.1179   36.3360   64.0975 H   0  0  0  0  0  0  0  0  0  0  0  0
   28.4520   36.4352   63.4784 H   0  0  0  0  0  0  0  0  0  0  0  0
   29.6357   35.3712   62.6816 H   0  0  0  0  0  0  0  0  0  0  0  0
   29.2925   37.4534   61.3795 H   0  0  0  0  0  0  0  0  0  0  0  0
   30.0129   39.6199   62.3472 H   0  0  0  0  0  0  0  0  0  0  0  0
   28.6722   38.9162   63.2831 H   0  0  0  0  0  0  0  0  0  0  0  0
   30.3382   38.8171   63.9021 H   0  0  0  0  0  0  0  0  0  0  0  0
   33.0438   40.3635   59.6151 H   0  0  0  0  0  0  0  0  0  0  0  0
   34.2868   38.1016   54.3557 H   0  0  0  0  0  0  0  0  0  0  0  0
   33.2984   36.3483   55.7601 H   0  0  0  0  0  0  0  0  0  0  0  0
   32.3239   35.7279   58.0070 H   0  0  0  0  0  0  0  0  0  0  0  0
  1  2  1  0  0  0  0
  1 20  1  0  0  0  0
  1 21  1  0  0  0  0
  1 22  1  0  0  0  0
  2  3  1  0  0  0  0
  2  4  1  0  0  0  0
  2 23  1  0  0  0  0
  3 24  1  0  0  0  0
  3 25  1  0  0  0  0
  3 26  1  0  0  0  0
  4  5  1  1  0  0  0
  4 18  1  0  0  0  0
  4  6  1  0  0  0  0
  6  7  1  0  0  0  0
  7 17  2  0  0  0  0
  7  8  1  0  0  0  0
  8  9  2  0  0  0  0
  8 27  1  0  0  0  0
  9 15  1  0  0  0  0
  9 10  1  0  0  0  0
 10 11  1  0  0  0  0
 11 12  2  0  0  0  0
 11 13  1  0  0  0  0
 13 14  2  0  0  0  0
 13 28  1  0  0  0  0
 14 15  1  0  0  0  0
 14 29  1  0  0  0  0
 15 16  2  0  0  0  0
 16 17  1  0  0  0  0
 16 30  1  0  0  0  0
 17 18  1  0  0  0  0
 18 19  2  0  0  0  0
M  END
$$$$
