ZINC000000023800      none
 OpenBabel11202420153D

 26 26  0  0  1  0  0  0  0  0999 V2000
   32.5380   33.3522   60.7564 C   0  0  0  0  0  0  0  0  0  0  0  0
   31.7126   34.2739   61.6564 C   0  0  1  0  0  0  0  0  0  0  0  0
   31.1678   33.6758   62.3869 H   0  0  0  0  0  0  0  0  0  0  0  0
   32.5835   35.1797   62.3370 O   0  0  0  0  0  0  0  0  0  0  0  0
   30.7199   35.0652   60.8027 C   0  0  1  0  0  0  0  0  0  0  0  0
   30.3052   34.4157   60.0318 H   0  0  0  0  0  0  0  0  0  0  0  0
   29.6639   35.5552   61.6313 O   0  0  0  0  0  0  0  0  0  0  0  0
   31.4289   36.2258   60.1536 C   0  0  0  0  0  0  0  0  0  0  0  0
   32.0209   36.0768   58.9090 C   0  0  0  0  0  0  0  0  0  0  0  0
   32.6633   37.1690   58.3476 C   0  0  0  0  0  0  0  0  0  0  0  0
   32.6916   38.3719   59.0496 C   0  0  0  0  0  0  0  0  0  0  0  0
   33.3746   39.5488   58.4634 C   0  0  0  0  0  0  0  0  0  0  0  0
   33.4054   40.7153   59.1378 N   0  0  0  0  0  0  0  0  0  0  0  0
   33.9072   39.4623   57.3746 O   0  0  0  0  0  0  0  0  0  0  0  0
   32.1164   38.4710   60.2416 N   0  0  0  0  0  0  0  0  0  0  0  0
   31.4958   37.4520   60.7951 C   0  0  0  0  0  0  0  0  0  0  0  0
   33.0830   33.9502   60.0260 H   0  0  0  0  0  0  0  0  0  0  0  0
   33.2453   32.7883   61.3647 H   0  0  0  0  0  0  0  0  0  0  0  0
   31.8738   32.6611   60.2373 H   0  0  0  0  0  0  0  0  0  0  0  0
   32.1274   35.7955   62.9268 H   0  0  0  0  0  0  0  0  0  0  0  0
   29.9604   36.1414   62.3409 H   0  0  0  0  0  0  0  0  0  0  0  0
   31.9827   35.1311   58.3888 H   0  0  0  0  0  0  0  0  0  0  0  0
   33.1356   37.0886   57.3796 H   0  0  0  0  0  0  0  0  0  0  0  0
   33.8526   41.4858   58.7541 H   0  0  0  0  0  0  0  0  0  0  0  0
   32.9768   40.7855   60.0052 H   0  0  0  0  0  0  0  0  0  0  0  0
   31.0357   37.5717   61.7648 H   0  0  0  0  0  0  0  0  0  0  0  0
  1  2  1  0  0  0  0
  1 17  1  0  0  0  0
  1 18  1  0  0  0  0
  1 19  1  0  0  0  0
  2  3  1  1  0  0  0
  2  4  1  0  0  0  0
  2  5  1  0  0  0  0
  4 20  1  0  0  0  0
  5  6  1  6  0  0  0
  5  7  1  0  0  0  0
  5  8  1  0  0  0  0
  7 21  1  0  0  0  0
  8 16  2  0  0  0  0
  8  9  1  0  0  0  0
  9 10  2  0  0  0  0
  9 22  1  0  0  0  0
 10 11  1  0  0  0  0
 10 23  1  0  0  0  0
 11 12  1  0  0  0  0
 11 15  2  0  0  0  0
 12 13  1  0  0  0  0
 12 14  2  0  0  0  0
 13 24  1  0  0  0  0
 13 25  1  0  0  0  0
 15 16  1  0  0  0  0
 16 26  1  0  0  0  0
M  END
$$$$
