ZINC000000047493      none
 OpenBabel11202420153D

 40 42  0  0  0  0  0  0  0  0999 V2000
   30.9420   33.2468   59.2749 C   0  0  0  0  0  0  0  0  0  0  0  0
   32.2924   33.7127   59.3120 O   0  0  0  0  0  0  0  0  0  0  0  0
   32.5867   34.8076   58.5678 C   0  0  0  0  0  0  0  0  0  0  0  0
   33.0089   34.6555   57.2472 C   0  0  0  0  0  0  0  0  0  0  0  0
   33.3140   35.7240   56.4655 C   0  0  0  0  0  0  0  0  0  0  0  0
   33.2135   37.0352   56.9653 C   0  0  0  0  0  0  0  0  0  0  0  0
   33.5261   38.1462   56.1639 C   0  0  0  0  0  0  0  0  0  0  0  0
   33.4169   39.4017   56.6804 C   0  0  0  0  0  0  0  0  0  0  0  0
   32.9995   39.6029   57.9934 C   0  0  0  0  0  0  0  0  0  0  0  0
   32.6829   38.5473   58.7966 C   0  0  0  0  0  0  0  0  0  0  0  0
   32.7894   37.2436   58.2997 C   0  0  0  0  0  0  0  0  0  0  0  0
   32.4654   36.0820   59.1285 C   0  0  0  0  0  0  0  0  0  0  0  0
   32.0231   36.2510   60.5149 C   0  0  0  0  0  0  0  0  0  0  0  0
   32.2863   35.3286   61.4016 N   0  0  0  0  0  0  0  0  0  0  0  0
   31.8733   35.4865   62.6959 C   0  0  0  0  0  0  0  0  0  0  0  0
   32.7050   36.1143   63.6264 C   0  0  0  0  0  0  0  0  0  0  0  0
   32.2796   36.2747   64.9286 C   0  0  0  0  0  0  0  0  0  0  0  0
   31.0370   35.8058   65.3168 C   0  0  0  0  0  0  0  0  0  0  0  0
   30.5048   36.0093   66.9842 S   0  0  0  0  0  0  0  0  0  0  0  0
   31.0004   34.6706   67.8237 N   0  0  0  0  0  0  0  0  0  0  0  0
   31.2395   37.1066   67.5088 O   0  0  0  0  0  0  0  0  0  0  0  0
   29.0847   35.9650   66.9605 O   0  0  0  0  0  0  0  0  0  0  0  0
   30.2099   35.1785   64.4019 C   0  0  0  0  0  0  0  0  0  0  0  0
   30.6199   35.0156   63.0949 C   0  0  0  0  0  0  0  0  0  0  0  0
   30.6760   32.9850   58.2507 H   0  0  0  0  0  0  0  0  0  0  0  0
   30.8433   32.3679   59.9119 H   0  0  0  0  0  0  0  0  0  0  0  0
   30.2767   34.0322   59.6337 H   0  0  0  0  0  0  0  0  0  0  0  0
   33.0953   33.6611   56.8347 H   0  0  0  0  0  0  0  0  0  0  0  0
   33.6376   35.5647   55.4475 H   0  0  0  0  0  0  0  0  0  0  0  0
   33.8516   38.0053   55.1438 H   0  0  0  0  0  0  0  0  0  0  0  0
   33.6582   40.2540   56.0624 H   0  0  0  0  0  0  0  0  0  0  0  0
   32.9214   40.6085   58.3796 H   0  0  0  0  0  0  0  0  0  0  0  0
   32.3601   38.7162   59.8133 H   0  0  0  0  0  0  0  0  0  0  0  0
   31.4794   37.1384   60.8037 H   0  0  0  0  0  0  0  0  0  0  0  0
   33.6771   36.4762   63.3259 H   0  0  0  0  0  0  0  0  0  0  0  0
   32.9201   36.7631   65.6482 H   0  0  0  0  0  0  0  0  0  0  0  0
   31.4891   33.9667   67.3694 H   0  0  0  0  0  0  0  0  0  0  0  0
   30.8021   34.5906   68.7699 H   0  0  0  0  0  0  0  0  0  0  0  0
   29.2414   34.8149   64.7117 H   0  0  0  0  0  0  0  0  0  0  0  0
   29.9737   34.5253   62.3821 H   0  0  0  0  0  0  0  0  0  0  0  0
  1  2  1  0  0  0  0
  1 25  1  0  0  0  0
  1 26  1  0  0  0  0
  1 27  1  0  0  0  0
  2  3  1  0  0  0  0
  3 12  2  0  0  0  0
  3  4  1  0  0  0  0
  4  5  2  0  0  0  0
  4 28  1  0  0  0  0
  5  6  1  0  0  0  0
  5 29  1  0  0  0  0
  6 11  2  0  0  0  0
  6  7  1  0  0  0  0
  7  8  2  0  0  0  0
  7 30  1  0  0  0  0
  8  9  1  0  0  0  0
  8 31  1  0  0  0  0
  9 10  2  0  0  0  0
  9 32  1  0  0  0  0
 10 11  1  0  0  0  0
 10 33  1  0  0  0  0
 11 12  1  0  0  0  0
 12 13  1  0  0  0  0
 13 14  2  0  0  0  0
 13 34  1  0  0  0  0
 14 15  1  0  0  0  0
 15 24  2  0  0  0  0
 15 16  1  0  0  0  0
 16 17  2  0  0  0  0
 16 35  1  0  0  0  0
 17 18  1  0  0  0  0
 17 36  1  0  0  0  0
 18 19  1  0  0  0  0
 18 23  2  0  0  0  0
 19 20  1  0  0  0  0
 19 21  2  0  0  0  0
 19 22  2  0  0  0  0
 20 37  1  0  0  0  0
 20 38  1  0  0  0  0
 23 24  1  0  0  0  0
 23 39  1  0  0  0  0
 24 40  1  0  0  0  0
M  END
$$$$
