ZINC000000034666      none
 OpenBabel11202420153D

 39 40  0  0  0  0  0  0  0  0999 V2000
   33.3200   35.1038   56.4693 C   0  0  0  0  0  0  0  0  0  0  0  0
   33.3986   36.4913   56.8017 O   0  0  0  0  0  0  0  0  0  0  0  0
   32.8484   36.8750   57.9846 C   0  0  0  0  0  0  0  0  0  0  0  0
   32.8901   38.2072   58.3688 C   0  0  0  0  0  0  0  0  0  0  0  0
   32.3323   38.5973   59.5703 C   0  0  0  0  0  0  0  0  0  0  0  0
   31.7290   37.6559   60.3936 C   0  0  0  0  0  0  0  0  0  0  0  0
   31.1629   38.0509   61.6125 N   0  0  0  0  0  0  0  0  0  0  0  0
   31.6180   37.5274   62.7680 C   0  0  0  0  0  0  0  0  0  0  0  0
   32.8833   36.3743   62.7456 S   0  0  0  0  0  0  0  0  0  0  0  0
   31.0770   37.9115   63.9411 N   0  0  0  0  0  0  0  0  0  0  0  0
   31.5499   37.3675   65.1419 C   0  0  0  0  0  0  0  0  0  0  0  0
   30.9718   36.2149   65.6573 C   0  0  0  0  0  0  0  0  0  0  0  0
   31.4413   35.6759   66.8383 C   0  0  0  0  0  0  0  0  0  0  0  0
   32.4849   36.2921   67.5161 C   0  0  0  0  0  0  0  0  0  0  0  0
   32.9578   35.7481   68.7175 N   0  0  0  0  0  0  0  0  0  0  0  0
   32.4170   36.1329   69.8905 C   0  0  0  0  0  0  0  0  0  0  0  0
   32.9257   35.5478   71.1827 C   0  0  0  0  0  0  0  0  0  0  0  0
   31.5209   36.9502   69.9060 O   0  0  0  0  0  0  0  0  0  0  0  0
   33.0596   37.4477   67.0036 C   0  0  0  0  0  0  0  0  0  0  0  0
   32.5934   37.9840   65.8201 C   0  0  0  0  0  0  0  0  0  0  0  0
   31.6923   36.3217   60.0106 C   0  0  0  0  0  0  0  0  0  0  0  0
   32.2459   35.9338   58.8065 C   0  0  0  0  0  0  0  0  0  0  0  0
   33.8302   34.5175   57.2336 H   0  0  0  0  0  0  0  0  0  0  0  0
   32.2740   34.8013   56.4175 H   0  0  0  0  0  0  0  0  0  0  0  0
   33.7956   34.9340   55.5034 H   0  0  0  0  0  0  0  0  0  0  0  0
   33.3593   38.9394   57.7284 H   0  0  0  0  0  0  0  0  0  0  0  0
   32.3654   39.6345   59.8697 H   0  0  0  0  0  0  0  0  0  0  0  0
   30.4460   38.7042   61.6252 H   0  0  0  0  0  0  0  0  0  0  0  0
   30.3601   38.5648   63.9538 H   0  0  0  0  0  0  0  0  0  0  0  0
   30.1575   35.7378   65.1322 H   0  0  0  0  0  0  0  0  0  0  0  0
   30.9942   34.7774   67.2372 H   0  0  0  0  0  0  0  0  0  0  0  0
   33.6744   35.0946   68.7050 H   0  0  0  0  0  0  0  0  0  0  0  0
   33.7247   34.8376   70.9704 H   0  0  0  0  0  0  0  0  0  0  0  0
   33.3090   36.3468   71.8174 H   0  0  0  0  0  0  0  0  0  0  0  0
   32.1112   35.0359   71.6953 H   0  0  0  0  0  0  0  0  0  0  0  0
   33.8709   37.9271   67.5311 H   0  0  0  0  0  0  0  0  0  0  0  0
   33.0398   38.8832   65.4217 H   0  0  0  0  0  0  0  0  0  0  0  0
   31.2272   35.5882   60.6525 H   0  0  0  0  0  0  0  0  0  0  0  0
   32.2137   34.8968   58.5066 H   0  0  0  0  0  0  0  0  0  0  0  0
  1  2  1  0  0  0  0
  1 23  1  0  0  0  0
  1 24  1  0  0  0  0
  1 25  1  0  0  0  0
  2  3  1  0  0  0  0
  3 22  2  0  0  0  0
  3  4  1  0  0  0  0
  4  5  2  0  0  0  0
  4 26  1  0  0  0  0
  5  6  1  0  0  0  0
  5 27  1  0  0  0  0
  6  7  1  0  0  0  0
  6 21  2  0  0  0  0
  7  8  1  0  0  0  0
  7 28  1  0  0  0  0
  8  9  2  0  0  0  0
  8 10  1  0  0  0  0
 10 11  1  0  0  0  0
 10 29  1  0  0  0  0
 11 20  2  0  0  0  0
 11 12  1  0  0  0  0
 12 13  2  0  0  0  0
 12 30  1  0  0  0  0
 13 14  1  0  0  0  0
 13 31  1  0  0  0  0
 14 15  1  0  0  0  0
 14 19  2  0  0  0  0
 15 16  1  0  0  0  0
 15 32  1  0  0  0  0
 16 17  1  0  0  0  0
 16 18  2  0  0  0  0
 17 33  1  0  0  0  0
 17 34  1  0  0  0  0
 17 35  1  0  0  0  0
 19 20  1  0  0  0  0
 19 36  1  0  0  0  0
 20 37  1  0  0  0  0
 21 22  1  0  0  0  0
 21 38  1  0  0  0  0
 22 39  1  0  0  0  0
M  END
$$$$
