ZINC000000032734      none
 OpenBabel11202420153D

 29 31  0  0  0  0  0  0  0  0999 V2000
   33.2809   40.8127   58.8364 N   0  0  0  0  0  0  0  0  0  0  0  0
   33.3467   39.7404   57.9558 C   0  0  0  0  0  0  0  0  0  0  0  0
   33.8906   39.6902   56.7622 N   0  0  0  0  0  0  0  0  0  0  0  0
   33.7431   38.5838   56.2990 O   0  0  0  0  0  0  0  0  0  0  0  0
   33.1592   37.7886   56.9971 N   0  0  0  0  0  0  0  0  0  0  0  0
   32.8236   38.3660   58.1289 C   0  0  0  0  0  0  0  0  0  0  0  0
   32.0968   37.7877   59.2871 C   0  0  0  0  0  0  0  0  0  0  0  0
   30.8020   37.7842   59.4676 N   0  0  0  0  0  0  0  0  0  0  0  0
   30.5284   37.2339   60.5133 O   0  0  0  0  0  0  0  0  0  0  0  0
   31.6460   36.8214   61.1195 C   0  0  0  0  0  0  0  0  0  0  0  0
   31.7341   36.0969   62.4380 C   0  0  0  0  0  0  0  0  0  0  0  0
   31.8552   37.1006   63.5556 C   0  0  0  0  0  0  0  0  0  0  0  0
   32.7828   36.9059   64.5620 C   0  0  0  0  0  0  0  0  0  0  0  0
   32.8943   37.8269   65.5868 C   0  0  0  0  0  0  0  0  0  0  0  0
   32.0768   38.9415   65.6064 C   0  0  0  0  0  0  0  0  0  0  0  0
   32.1955   39.9271   66.7043 N   0  0  0  0  0  0  0  0  0  0  0  0
   33.0134   39.7559   67.5905 O   0  0  0  0  0  0  0  0  0  0  0  0
   31.4752   40.9092   66.7217 O   0  0  0  0  0  0  0  0  0  0  0  0
   31.1499   39.1366   64.5996 C   0  0  0  0  0  0  0  0  0  0  0  0
   31.0391   38.2161   63.5742 C   0  0  0  0  0  0  0  0  0  0  0  0
   32.6505   37.1704   60.3551 N   0  0  0  0  0  0  0  0  0  0  0  0
   32.8455   40.7076   59.6968 H   0  0  0  0  0  0  0  0  0  0  0  0
   33.6703   41.6665   58.5909 H   0  0  0  0  0  0  0  0  0  0  0  0
   32.6085   35.4464   62.4375 H   0  0  0  0  0  0  0  0  0  0  0  0
   30.8354   35.4975   62.5839 H   0  0  0  0  0  0  0  0  0  0  0  0
   33.4174   36.0321   64.5498 H   0  0  0  0  0  0  0  0  0  0  0  0
   33.6188   37.6747   66.3731 H   0  0  0  0  0  0  0  0  0  0  0  0
   30.5120   40.0079   64.6143 H   0  0  0  0  0  0  0  0  0  0  0  0
   30.3145   38.3683   62.7879 H   0  0  0  0  0  0  0  0  0  0  0  0
  1  2  1  0  0  0  0
  1 22  1  0  0  0  0
  1 23  1  0  0  0  0
  2  6  1  0  0  0  0
  2  3  2  0  0  0  0
  3  4  1  0  0  0  0
  4  5  1  0  0  0  0
  5  6  2  0  0  0  0
  6  7  1  0  0  0  0
  7 21  1  0  0  0  0
  7  8  2  0  0  0  0
  8  9  1  0  0  0  0
  9 10  1  0  0  0  0
 10 11  1  0  0  0  0
 10 21  2  0  0  0  0
 11 12  1  0  0  0  0
 11 24  1  0  0  0  0
 11 25  1  0  0  0  0
 12 20  2  0  0  0  0
 12 13  1  0  0  0  0
 13 14  2  0  0  0  0
 13 26  1  0  0  0  0
 14 15  1  0  0  0  0
 14 27  1  0  0  0  0
 15 16  1  0  0  0  0
 15 19  2  0  0  0  0
 16 17  2  0  0  0  0
 16 18  2  0  0  0  0
 19 20  1  0  0  0  0
 19 28  1  0  0  0  0
 20 29  1  0  0  0  0
M  END
$$$$
