ZINC000000040150      none
 OpenBabel11202420153D

 30 32  0  0  1  0  0  0  0  0999 V2000
   29.6621   38.6469   63.4847 C   0  0  0  0  0  0  0  0  0  0  0  0
   30.2010   37.2458   63.1888 C   0  0  1  0  0  0  0  0  0  0  0  0
   29.5475   36.4958   63.6344 H   0  0  0  0  0  0  0  0  0  0  0  0
   30.2833   37.0404   61.7685 O   0  0  0  0  0  0  0  0  0  0  0  0
   31.4333   36.2008   61.5299 C   0  0  1  0  0  0  0  0  0  0  0  0
   31.2008   35.1592   61.7516 H   0  0  0  0  0  0  0  0  0  0  0  0
   31.8969   36.3414   60.1473 N   0  0  0  0  0  0  0  0  0  0  0  0
   31.9801   35.3462   59.2194 C   0  0  0  0  0  0  0  0  0  0  0  0
   32.4288   35.8236   58.0949 N   0  0  0  0  0  0  0  0  0  0  0  0
   32.6708   37.1493   58.2324 C   0  0  0  0  0  0  0  0  0  0  0  0
   33.1537   38.1592   57.3826 C   0  0  0  0  0  0  0  0  0  0  0  0
   33.5027   37.8763   56.0737 N   0  0  0  0  0  0  0  0  0  0  0  0
   33.2672   39.3922   57.8652 N   0  0  0  0  0  0  0  0  0  0  0  0
   32.9363   39.6715   59.1129 C   0  0  0  0  0  0  0  0  0  0  0  0
   32.4798   38.7585   59.9440 N   0  0  0  0  0  0  0  0  0  0  0  0
   32.3324   37.4975   59.5507 C   0  0  0  0  0  0  0  0  0  0  0  0
   32.4945   36.7482   62.5238 C   0  0  0  0  0  0  0  0  0  0  0  0
   31.6266   37.1021   63.7559 C   0  0  2  0  0  0  0  0  0  0  0  0
   31.9576   38.0415   64.1986 H   0  0  0  0  0  0  0  0  0  0  0  0
   31.6769   36.0502   64.7218 O   0  0  0  0  0  0  0  0  0  0  0  0
   30.3101   39.3908   63.0213 H   0  0  0  0  0  0  0  0  0  0  0  0
   28.6540   38.7413   63.0809 H   0  0  0  0  0  0  0  0  0  0  0  0
   29.6382   38.8068   64.5626 H   0  0  0  0  0  0  0  0  0  0  0  0
   31.7109   34.3145   59.3914 H   0  0  0  0  0  0  0  0  0  0  0  0
   33.4151   36.9724   55.7329 H   0  0  0  0  0  0  0  0  0  0  0  0
   33.8349   38.5820   55.4970 H   0  0  0  0  0  0  0  0  0  0  0  0
   33.0440   40.6869   59.4644 H   0  0  0  0  0  0  0  0  0  0  0  0
   32.9819   37.6372   62.1231 H   0  0  0  0  0  0  0  0  0  0  0  0
   33.2289   35.9822   62.7724 H   0  0  0  0  0  0  0  0  0  0  0  0
   31.1118   36.1967   65.4927 H   0  0  0  0  0  0  0  0  0  0  0  0
  1  2  1  0  0  0  0
  1 21  1  0  0  0  0
  1 22  1  0  0  0  0
  1 23  1  0  0  0  0
  2  3  1  1  0  0  0
  2 18  1  0  0  0  0
  2  4  1  0  0  0  0
  4  5  1  0  0  0  0
  5  6  1  1  0  0  0
  5  7  1  0  0  0  0
  5 17  1  0  0  0  0
  7 16  1  0  0  0  0
  7  8  1  0  0  0  0
  8  9  2  0  0  0  0
  8 24  1  0  0  0  0
  9 10  1  0  0  0  0
 10 16  2  0  0  0  0
 10 11  1  0  0  0  0
 11 12  1  0  0  0  0
 11 13  2  0  0  0  0
 12 25  1  0  0  0  0
 12 26  1  0  0  0  0
 13 14  1  0  0  0  0
 14 15  2  0  0  0  0
 14 27  1  0  0  0  0
 15 16  1  0  0  0  0
 17 18  1  0  0  0  0
 17 28  1  0  0  0  0
 17 29  1  0  0  0  0
 18 19  1  1  0  0  0
 18 20  1  0  0  0  0
 20 30  1  0  0  0  0
M  END
$$$$
