ZINC000000003793      none
 OpenBabel11202420153D

 26 28  0  0  0  0  0  0  0  0999 V2000
   30.9489   38.5883   62.0953 Cl  0  0  0  0  0  0  0  0  0  0  0  0
   31.6111   37.8537   60.6687 C   0  0  0  0  0  0  0  0  0  0  0  0
   31.4242   36.5007   60.4395 C   0  0  0  0  0  0  0  0  0  0  0  0
   31.9437   35.9121   59.3056 C   0  0  0  0  0  0  0  0  0  0  0  0
   32.6687   36.6815   58.3927 C   0  0  0  0  0  0  0  0  0  0  0  0
   33.2328   36.0564   57.1798 C   0  0  0  0  0  0  0  0  0  0  0  0
   33.4390   36.6785   55.9846 C   0  0  0  0  0  0  0  0  0  0  0  0
   33.9864   35.7247   55.1151 C   0  0  0  0  0  0  0  0  0  0  0  0
   34.0907   34.5593   55.8180 C   0  0  0  0  0  0  0  0  0  0  0  0
   34.6152   33.2867   55.3018 C   0  0  0  0  0  0  0  0  0  0  0  0
   34.7109   32.1597   55.9780 N   0  0  0  0  0  0  0  0  0  0  0  0
   35.2320   31.2143   55.1881 C   0  0  0  0  0  0  0  0  0  0  0  0
   35.4742   31.7553   53.9765 C   0  0  0  0  0  0  0  0  0  0  0  0
   35.0819   33.0670   54.0357 N   0  0  0  0  0  0  0  0  0  0  0  0
   35.1286   33.7166   53.3169 H   0  0  0  0  0  0  0  0  0  0  0  0
   33.6361   34.7764   57.0685 O   0  0  0  0  0  0  0  0  0  0  0  0
   32.8582   38.0443   58.6323 C   0  0  0  0  0  0  0  0  0  0  0  0
   32.3290   38.6220   59.7673 C   0  0  0  0  0  0  0  0  0  0  0  0
   30.8670   35.9061   61.1482 H   0  0  0  0  0  0  0  0  0  0  0  0
   31.7934   34.8578   59.1258 H   0  0  0  0  0  0  0  0  0  0  0  0
   33.2223   37.7107   55.7519 H   0  0  0  0  0  0  0  0  0  0  0  0
   34.2707   35.8819   54.0851 H   0  0  0  0  0  0  0  0  0  0  0  0
   35.4265   30.1908   55.4726 H   0  0  0  0  0  0  0  0  0  0  0  0
   35.8942   31.2491   53.1199 H   0  0  0  0  0  0  0  0  0  0  0  0
   33.4175   38.6446   57.9300 H   0  0  0  0  0  0  0  0  0  0  0  0
   32.4752   39.6757   59.9539 H   0  0  0  0  0  0  0  0  0  0  0  0
  1  2  1  0  0  0  0
  2 18  2  0  0  0  0
  2  3  1  0  0  0  0
  3  4  2  0  0  0  0
  3 19  1  0  0  0  0
  4  5  1  0  0  0  0
  4 20  1  0  0  0  0
  5  6  1  0  0  0  0
  5 17  2  0  0  0  0
  6 16  1  0  0  0  0
  6  7  2  0  0  0  0
  7  8  1  0  0  0  0
  7 21  1  0  0  0  0
  8  9  2  0  0  0  0
  8 22  1  0  0  0  0
  9 10  1  0  0  0  0
  9 16  1  0  0  0  0
 10 14  1  0  0  0  0
 10 11  2  0  0  0  0
 11 12  1  0  0  0  0
 12 13  2  0  0  0  0
 12 23  1  0  0  0  0
 13 14  1  0  0  0  0
 13 24  1  0  0  0  0
 14 15  1  0  0  0  0
 17 18  1  0  0  0  0
 17 25  1  0  0  0  0
 18 26  1  0  0  0  0
M  END
$$$$
