ZINC000000008605      none
 OpenBabel11202420153D

 22 22  0  0  0  0  0  0  0  0999 V2000
   28.5479   35.0765   64.1884 C   0  0  0  0  0  0  0  0  0  0  0  0
   29.9703   34.7754   63.7117 C   0  0  0  0  0  0  0  0  0  0  0  0
   30.4143   35.8338   62.8012 N   0  0  0  0  0  0  0  0  0  0  0  0
   31.2919   35.5523   61.8178 C   0  0  0  0  0  0  0  0  0  0  0  0
   31.8935   33.9597   61.6373 S   0  0  0  0  0  0  0  0  0  0  0  0
   31.7325   36.6124   60.9007 C   0  0  0  0  0  0  0  0  0  0  0  0
   32.0859   36.3115   59.5870 C   0  0  0  0  0  0  0  0  0  0  0  0
   32.4996   37.3448   58.7449 C   0  0  0  0  0  0  0  0  0  0  0  0
   32.5536   38.6197   59.2071 C   0  0  0  0  0  0  0  0  0  0  0  0
   32.2112   38.9193   60.4835 N   0  0  0  0  0  0  0  0  0  0  0  0
   32.2593   39.8393   60.7872 H   0  0  0  0  0  0  0  0  0  0  0  0
   31.7998   37.9612   61.3355 C   0  0  0  0  0  0  0  0  0  0  0  0
   31.3656   38.3683   62.9408 S   0  0  0  0  0  0  0  0  0  0  0  0
   28.5344   36.0336   64.7097 H   0  0  0  0  0  0  0  0  0  0  0  0
   27.8785   35.1210   63.3293 H   0  0  0  0  0  0  0  0  0  0  0  0
   28.2177   34.2891   64.8660 H   0  0  0  0  0  0  0  0  0  0  0  0
   29.9839   33.8182   63.1904 H   0  0  0  0  0  0  0  0  0  0  0  0
   30.6396   34.7309   64.5708 H   0  0  0  0  0  0  0  0  0  0  0  0
   30.0735   36.7362   62.9034 H   0  0  0  0  0  0  0  0  0  0  0  0
   32.0403   35.2947   59.2260 H   0  0  0  0  0  0  0  0  0  0  0  0
   32.7775   37.1294   57.7238 H   0  0  0  0  0  0  0  0  0  0  0  0
   32.8750   39.4102   58.5451 H   0  0  0  0  0  0  0  0  0  0  0  0
  1  2  1  0  0  0  0
  1 14  1  0  0  0  0
  1 15  1  0  0  0  0
  1 16  1  0  0  0  0
  2  3  1  0  0  0  0
  2 17  1  0  0  0  0
  2 18  1  0  0  0  0
  3  4  1  0  0  0  0
  3 19  1  0  0  0  0
  4  5  2  0  0  0  0
  4  6  1  0  0  0  0
  6 12  1  0  0  0  0
  6  7  2  0  0  0  0
  7  8  1  0  0  0  0
  7 20  1  0  0  0  0
  8  9  2  0  0  0  0
  8 21  1  0  0  0  0
  9 10  1  0  0  0  0
  9 22  1  0  0  0  0
 10 11  1  0  0  0  0
 10 12  1  0  0  0  0
 12 13  2  0  0  0  0
M  END
$$$$
