ZINC000000015867      none
 OpenBabel11202420153D

 18 19  0  0  0  0  0  0  0  0999 V2000
   33.1672   36.2008   56.1687 C   0  0  0  0  0  0  0  0  0  0  0  0
   33.1243   37.4875   56.9520 C   0  0  0  0  0  0  0  0  0  0  0  0
   33.4204   38.6564   56.4025 C   0  0  0  0  0  0  0  0  0  0  0  0
   33.2621   39.9402   57.5889 S   0  0  0  0  0  0  0  0  0  0  0  0
   32.7803   38.7869   58.8329 C   0  0  0  0  0  0  0  0  0  0  0  0
   32.4500   39.0150   60.1636 N   0  0  0  0  0  0  0  0  0  0  0  0
   32.4695   39.9192   60.5143 H   0  0  0  0  0  0  0  0  0  0  0  0
   32.1040   37.9957   60.9712 C   0  0  0  0  0  0  0  0  0  0  0  0
   31.8161   38.1972   62.1352 O   0  0  0  0  0  0  0  0  0  0  0  0
   32.0811   36.6178   60.4118 C   0  0  0  0  0  0  0  0  0  0  0  0
   31.7730   35.6725   61.1118 O   0  0  0  0  0  0  0  0  0  0  0  0
   32.4057   36.4334   59.1206 N   0  0  0  0  0  0  0  0  0  0  0  0
   32.3935   35.5387   58.7461 H   0  0  0  0  0  0  0  0  0  0  0  0
   32.7631   37.5235   58.3060 C   0  0  0  0  0  0  0  0  0  0  0  0
   34.1629   35.7637   56.2421 H   0  0  0  0  0  0  0  0  0  0  0  0
   32.4337   35.5039   56.5744 H   0  0  0  0  0  0  0  0  0  0  0  0
   32.9357   36.4040   55.1232 H   0  0  0  0  0  0  0  0  0  0  0  0
   33.7159   38.7985   55.3734 H   0  0  0  0  0  0  0  0  0  0  0  0
  1  2  1  0  0  0  0
  1 15  1  0  0  0  0
  1 16  1  0  0  0  0
  1 17  1  0  0  0  0
  2 14  1  0  0  0  0
  2  3  2  0  0  0  0
  3  4  1  0  0  0  0
  3 18  1  0  0  0  0
  4  5  1  0  0  0  0
  5 14  2  0  0  0  0
  5  6  1  0  0  0  0
  6  7  1  0  0  0  0
  6  8  1  0  0  0  0
  8  9  2  0  0  0  0
  8 10  1  0  0  0  0
 10 11  2  0  0  0  0
 10 12  1  0  0  0  0
 12 13  1  0  0  0  0
 12 14  1  0  0  0  0
M  END
$$$$
