ZINC000000002177      none
 OpenBabel11202420153D

 26 28  0  0  0  0  0  0  0  0999 V2000
   33.3928   39.2438   58.2649 C   0  0  0  0  0  0  0  0  0  0  0  0
   32.8997   38.1776   59.0050 C   0  0  0  0  0  0  0  0  0  0  0  0
   32.7853   36.9372   58.4438 C   0  0  0  0  0  0  0  0  0  0  0  0
   33.1670   36.7392   57.1158 C   0  0  0  0  0  0  0  0  0  0  0  0
   33.1781   35.5748   56.2223 C   0  0  0  0  0  0  0  0  0  0  0  0
   32.6582   33.9398   56.6236 S   0  0  0  0  0  0  0  0  0  0  0  0
   33.7156   33.0133   55.5614 C   0  0  0  0  0  0  0  0  0  0  0  0
   34.8868   32.5981   55.9234 N   0  0  0  0  0  0  0  0  0  0  0  0
   35.5221   31.8584   54.8241 C   0  0  0  0  0  0  0  0  0  0  0  0
   34.4804   31.9023   53.6886 C   0  0  0  0  0  0  0  0  0  0  0  0
   33.3691   32.6704   54.2819 N   0  0  0  0  0  0  0  0  0  0  0  0
   33.6558   35.9956   55.0354 C   0  0  0  0  0  0  0  0  0  0  0  0
   33.9552   37.3353   55.1037 N   0  0  0  0  0  0  0  0  0  0  0  0
   34.3137   37.8641   54.3737 H   0  0  0  0  0  0  0  0  0  0  0  0
   33.6705   37.8149   56.3623 C   0  0  0  0  0  0  0  0  0  0  0  0
   33.7827   39.0689   56.9554 C   0  0  0  0  0  0  0  0  0  0  0  0
   33.4771   40.2185   58.7222 H   0  0  0  0  0  0  0  0  0  0  0  0
   32.6038   38.3300   60.0325 H   0  0  0  0  0  0  0  0  0  0  0  0
   32.4012   36.1124   59.0257 H   0  0  0  0  0  0  0  0  0  0  0  0
   36.4444   32.3501   54.5157 H   0  0  0  0  0  0  0  0  0  0  0  0
   35.7202   30.8285   55.1213 H   0  0  0  0  0  0  0  0  0  0  0  0
   34.8833   32.4183   52.8171 H   0  0  0  0  0  0  0  0  0  0  0  0
   34.1565   30.8955   53.4248 H   0  0  0  0  0  0  0  0  0  0  0  0
   32.5345   32.8938   53.8407 H   0  0  0  0  0  0  0  0  0  0  0  0
   33.7846   35.3739   54.1619 H   0  0  0  0  0  0  0  0  0  0  0  0
   34.1634   39.9048   56.3873 H   0  0  0  0  0  0  0  0  0  0  0  0
  1 16  2  0  0  0  0
  1  2  1  0  0  0  0
  1 17  1  0  0  0  0
  2  3  2  0  0  0  0
  2 18  1  0  0  0  0
  3  4  1  0  0  0  0
  3 19  1  0  0  0  0
  4 15  2  0  0  0  0
  4  5  1  0  0  0  0
  5  6  1  0  0  0  0
  5 12  2  0  0  0  0
  6  7  1  0  0  0  0
  7 11  1  0  0  0  0
  7  8  2  0  0  0  0
  8  9  1  0  0  0  0
  9 10  1  0  0  0  0
  9 20  1  0  0  0  0
  9 21  1  0  0  0  0
 10 11  1  0  0  0  0
 10 22  1  0  0  0  0
 10 23  1  0  0  0  0
 11 24  1  0  0  0  0
 12 13  1  0  0  0  0
 12 25  1  0  0  0  0
 13 14  1  0  0  0  0
 13 15  1  0  0  0  0
 15 16  1  0  0  0  0
 16 26  1  0  0  0  0
M  END
$$$$
