ZINC000000032970      none
 OpenBabel11202420153D

 42 44  0  0  0  0  0  0  0  0999 V2000
   31.6519   41.2568   68.6362 C   0  0  0  0  0  0  0  0  0  0  0  0
   31.2149   41.1290   67.2817 O   0  0  0  0  0  0  0  0  0  0  0  0
   31.2868   39.8921   66.7247 C   0  0  0  0  0  0  0  0  0  0  0  0
   32.4162   39.5015   66.0630 C   0  0  0  0  0  0  0  0  0  0  0  0
   32.5109   38.2357   65.4916 C   0  0  0  0  0  0  0  0  0  0  0  0
   31.4747   37.3548   65.5653 C   0  0  0  0  0  0  0  0  0  0  0  0
   31.6141   35.7611   64.8267 S   0  0  0  0  0  0  0  0  0  0  0  0
   32.9364   35.6707   64.3143 O   0  0  0  0  0  0  0  0  0  0  0  0
   31.0787   34.8365   65.7635 O   0  0  0  0  0  0  0  0  0  0  0  0
   30.6021   35.7381   63.5161 N   0  0  0  0  0  0  0  0  0  0  0  0
   31.0742   36.1320   62.2620 C   0  0  0  0  0  0  0  0  0  0  0  0
   30.9823   37.4615   61.8697 C   0  0  0  0  0  0  0  0  0  0  0  0
   30.3727   38.4812   62.7970 C   0  0  0  0  0  0  0  0  0  0  0  0
   31.4546   37.8485   60.6310 C   0  0  0  0  0  0  0  0  0  0  0  0
   32.0089   36.9124   59.7773 C   0  0  0  0  0  0  0  0  0  0  0  0
   32.0972   35.5872   60.1626 C   0  0  0  0  0  0  0  0  0  0  0  0
   31.6317   35.1944   61.4020 C   0  0  0  0  0  0  0  0  0  0  0  0
   31.7289   33.7501   61.8213 C   0  0  0  0  0  0  0  0  0  0  0  0
   30.2946   37.7222   66.2318 C   0  0  0  0  0  0  0  0  0  0  0  0
   29.2028   36.8387   66.3291 C   0  0  0  0  0  0  0  0  0  0  0  0
   28.0873   37.2639   66.9922 C   0  0  0  0  0  0  0  0  0  0  0  0
   28.0538   38.5408   67.5489 C   0  0  0  0  0  0  0  0  0  0  0  0
   29.0727   39.3602   67.4565 N   0  0  0  0  0  0  0  0  0  0  0  0
   30.1935   39.0062   66.8214 C   0  0  0  0  0  0  0  0  0  0  0  0
   32.6990   40.9630   68.7095 H   0  0  0  0  0  0  0  0  0  0  0  0
   31.0481   40.6123   69.2751 H   0  0  0  0  0  0  0  0  0  0  0  0
   31.5419   42.2927   68.9572 H   0  0  0  0  0  0  0  0  0  0  0  0
   33.2503   40.1833   65.9866 H   0  0  0  0  0  0  0  0  0  0  0  0
   33.4170   37.9501   64.9779 H   0  0  0  0  0  0  0  0  0  0  0  0
   29.6813   35.4508   63.6194 H   0  0  0  0  0  0  0  0  0  0  0  0
   31.1642   38.9961   63.3416 H   0  0  0  0  0  0  0  0  0  0  0  0
   29.8013   39.2049   62.2159 H   0  0  0  0  0  0  0  0  0  0  0  0
   29.7118   37.9799   63.5042 H   0  0  0  0  0  0  0  0  0  0  0  0
   31.3870   38.8826   60.3270 H   0  0  0  0  0  0  0  0  0  0  0  0
   32.3739   37.2170   58.8076 H   0  0  0  0  0  0  0  0  0  0  0  0
   32.5304   34.8586   59.4933 H   0  0  0  0  0  0  0  0  0  0  0  0
   30.8250   33.2220   61.5174 H   0  0  0  0  0  0  0  0  0  0  0  0
   32.5952   33.2910   61.3451 H   0  0  0  0  0  0  0  0  0  0  0  0
   31.8365   33.6927   62.9044 H   0  0  0  0  0  0  0  0  0  0  0  0
   29.2463   35.8523   65.8917 H   0  0  0  0  0  0  0  0  0  0  0  0
   27.2316   36.6112   67.0848 H   0  0  0  0  0  0  0  0  0  0  0  0
   27.1650   38.8638   68.0706 H   0  0  0  0  0  0  0  0  0  0  0  0
  1  2  1  0  0  0  0
  1 25  1  0  0  0  0
  1 26  1  0  0  0  0
  1 27  1  0  0  0  0
  2  3  1  0  0  0  0
  3 24  2  0  0  0  0
  3  4  1  0  0  0  0
  4  5  2  0  0  0  0
  4 28  1  0  0  0  0
  5  6  1  0  0  0  0
  5 29  1  0  0  0  0
  6  7  1  0  0  0  0
  6 19  2  0  0  0  0
  7  8  2  0  0  0  0
  7  9  2  0  0  0  0
  7 10  1  0  0  0  0
 10 11  1  0  0  0  0
 10 30  1  0  0  0  0
 11 17  2  0  0  0  0
 11 12  1  0  0  0  0
 12 13  1  0  0  0  0
 12 14  2  0  0  0  0
 13 31  1  0  0  0  0
 13 32  1  0  0  0  0
 13 33  1  0  0  0  0
 14 15  1  0  0  0  0
 14 34  1  0  0  0  0
 15 16  2  0  0  0  0
 15 35  1  0  0  0  0
 16 17  1  0  0  0  0
 16 36  1  0  0  0  0
 17 18  1  0  0  0  0
 18 37  1  0  0  0  0
 18 38  1  0  0  0  0
 18 39  1  0  0  0  0
 19 24  1  0  0  0  0
 19 20  1  0  0  0  0
 20 21  2  0  0  0  0
 20 40  1  0  0  0  0
 21 22  1  0  0  0  0
 21 41  1  0  0  0  0
 22 23  2  0  0  0  0
 22 42  1  0  0  0  0
 23 24  1  0  0  0  0
M  END
$$$$
