ZINC000000036698      none
 OpenBabel11202420153D

 37 37  0  0  1  0  0  0  0  0999 V2000
   29.0778   38.1797   62.8752 C   0  0  0  0  0  0  0  0  0  0  0  0
   29.7309   37.5903   61.7201 O   0  0  0  0  0  0  0  0  0  0  0  0
   30.8384   38.2072   61.2623 C   0  0  0  0  0  0  0  0  0  0  0  0
   31.2470   39.2104   61.8134 O   0  0  0  0  0  0  0  0  0  0  0  0
   31.5526   37.6663   60.0951 C   0  0  0  0  0  0  0  0  0  0  0  0
   32.2574   38.5241   59.2433 C   0  0  0  0  0  0  0  0  0  0  0  0
   32.9154   38.0222   58.1578 C   0  0  0  0  0  0  0  0  0  0  0  0
   32.8946   36.6548   57.8919 C   0  0  0  0  0  0  0  0  0  0  0  0
   33.5699   36.1533   56.7799 N   0  0  0  0  0  0  0  0  0  0  0  0
   33.5516   34.8309   56.5202 C   0  0  0  0  0  0  0  0  0  0  0  0
   34.2814   34.2890   55.3182 C   0  0  0  0  0  0  0  0  0  0  0  0
   32.9478   34.0772   57.2538 O   0  0  0  0  0  0  0  0  0  0  0  0
   32.2044   35.7895   58.7302 C   0  0  0  0  0  0  0  0  0  0  0  0
   31.5338   36.2869   59.8345 C   0  0  0  0  0  0  0  0  0  0  0  0
   30.8572   35.4468   60.6570 O   0  0  0  0  0  0  0  0  0  0  0  0
   31.5806   34.8967   61.7598 C   0  0  1  0  0  0  0  0  0  0  0  0
   32.3512   35.5998   62.0760 H   0  0  0  0  0  0  0  0  0  0  0  0
   30.6194   34.6370   62.9215 C   0  0  0  0  0  0  0  0  0  0  0  0
   32.2248   33.6001   61.3415 C   0  0  0  0  0  0  0  0  0  0  0  0
   31.5774   32.7440   60.2838 C   0  0  0  0  0  0  0  0  0  0  0  0
   33.2599   33.2473   61.8538 O   0  0  0  0  0  0  0  0  0  0  0  0
   29.7719   38.1971   63.7155 H   0  0  0  0  0  0  0  0  0  0  0  0
   28.7690   39.1977   62.6379 H   0  0  0  0  0  0  0  0  0  0  0  0
   28.2023   37.5867   63.1395 H   0  0  0  0  0  0  0  0  0  0  0  0
   32.2773   39.5853   59.4428 H   0  0  0  0  0  0  0  0  0  0  0  0
   33.4548   38.6889   57.5013 H   0  0  0  0  0  0  0  0  0  0  0  0
   34.0529   36.7561   56.1931 H   0  0  0  0  0  0  0  0  0  0  0  0
   34.7607   35.1091   54.7839 H   0  0  0  0  0  0  0  0  0  0  0  0
   35.0386   33.5757   55.6440 H   0  0  0  0  0  0  0  0  0  0  0  0
   33.5725   33.7898   54.6574 H   0  0  0  0  0  0  0  0  0  0  0  0
   32.1912   34.7299   58.5213 H   0  0  0  0  0  0  0  0  0  0  0  0
   31.1711   34.2174   63.7628 H   0  0  0  0  0  0  0  0  0  0  0  0
   30.1535   35.5748   63.2242 H   0  0  0  0  0  0  0  0  0  0  0  0
   29.8488   33.9339   62.6054 H   0  0  0  0  0  0  0  0  0  0  0  0
   31.9507   33.0350   59.3019 H   0  0  0  0  0  0  0  0  0  0  0  0
   31.8166   31.6965   60.4676 H   0  0  0  0  0  0  0  0  0  0  0  0
   30.4966   32.8809   60.3168 H   0  0  0  0  0  0  0  0  0  0  0  0
  1  2  1  0  0  0  0
  1 22  1  0  0  0  0
  1 23  1  0  0  0  0
  1 24  1  0  0  0  0
  2  3  1  0  0  0  0
  3  4  2  0  0  0  0
  3  5  1  0  0  0  0
  5 14  2  0  0  0  0
  5  6  1  0  0  0  0
  6  7  2  0  0  0  0
  6 25  1  0  0  0  0
  7  8  1  0  0  0  0
  7 26  1  0  0  0  0
  8  9  1  0  0  0  0
  8 13  2  0  0  0  0
  9 10  1  0  0  0  0
  9 27  1  0  0  0  0
 10 11  1  0  0  0  0
 10 12  2  0  0  0  0
 11 28  1  0  0  0  0
 11 29  1  0  0  0  0
 11 30  1  0  0  0  0
 13 14  1  0  0  0  0
 13 31  1  0  0  0  0
 14 15  1  0  0  0  0
 15 16  1  0  0  0  0
 16 17  1  1  0  0  0
 16 18  1  0  0  0  0
 16 19  1  0  0  0  0
 18 32  1  0  0  0  0
 18 33  1  0  0  0  0
 18 34  1  0  0  0  0
 19 20  1  0  0  0  0
 19 21  2  0  0  0  0
 20 35  1  0  0  0  0
 20 36  1  0  0  0  0
 20 37  1  0  0  0  0
M  END
$$$$
