ZINC000000033218      none
 OpenBabel11202420153D

 31 32  0  0  0  0  0  0  0  0999 V2000
   33.4794   37.9670   65.8402 C   0  0  0  0  0  0  0  0  0  0  0  0
   32.4382   37.5135   64.8495 C   0  0  0  0  0  0  0  0  0  0  0  0
   31.3796   38.3473   64.5412 C   0  0  0  0  0  0  0  0  0  0  0  0
   30.4272   37.9206   63.6287 C   0  0  0  0  0  0  0  0  0  0  0  0
   30.5729   36.6634   63.0618 C   0  0  0  0  0  0  0  0  0  0  0  0
   29.5610   36.1523   62.0689 C   0  0  0  0  0  0  0  0  0  0  0  0
   29.9821   36.5603   60.6556 C   0  0  0  0  0  0  0  0  0  0  0  0
   31.6090   35.8504   60.2810 S   0  0  0  0  0  0  0  0  0  0  0  0
   32.3062   37.0240   59.1669 C   0  0  0  0  0  0  0  0  0  0  0  0
   32.4999   38.3392   59.5724 C   0  0  0  0  0  0  0  0  0  0  0  0
   33.0464   39.2572   58.6977 C   0  0  0  0  0  0  0  0  0  0  0  0
   33.4015   38.8692   57.4176 C   0  0  0  0  0  0  0  0  0  0  0  0
   34.0883   40.0263   56.3208 Cl  0  0  0  0  0  0  0  0  0  0  0  0
   33.2096   37.5597   57.0099 C   0  0  0  0  0  0  0  0  0  0  0  0
   33.6559   37.0771   55.4031 Cl  0  0  0  0  0  0  0  0  0  0  0  0
   32.6686   36.6351   57.8834 C   0  0  0  0  0  0  0  0  0  0  0  0
   31.6608   35.8878   63.4145 C   0  0  0  0  0  0  0  0  0  0  0  0
   32.5476   36.3263   64.2865 N   0  0  0  0  0  0  0  0  0  0  0  0
   33.1824   37.6633   66.8440 H   0  0  0  0  0  0  0  0  0  0  0  0
   34.4389   37.5131   65.5922 H   0  0  0  0  0  0  0  0  0  0  0  0
   33.5700   39.0524   65.8008 H   0  0  0  0  0  0  0  0  0  0  0  0
   31.2958   39.3189   65.0052 H   0  0  0  0  0  0  0  0  0  0  0  0
   29.5893   38.5505   63.3690 H   0  0  0  0  0  0  0  0  0  0  0  0
   29.5067   35.0654   62.1324 H   0  0  0  0  0  0  0  0  0  0  0  0
   28.5836   36.5788   62.2941 H   0  0  0  0  0  0  0  0  0  0  0  0
   29.2503   36.1906   59.9375 H   0  0  0  0  0  0  0  0  0  0  0  0
   30.0366   37.6471   60.5923 H   0  0  0  0  0  0  0  0  0  0  0  0
   32.2233   38.6429   60.5713 H   0  0  0  0  0  0  0  0  0  0  0  0
   33.1966   40.2792   59.0127 H   0  0  0  0  0  0  0  0  0  0  0  0
   32.5237   35.6127   57.5671 H   0  0  0  0  0  0  0  0  0  0  0  0
   31.7836   34.9092   62.9744 H   0  0  0  0  0  0  0  0  0  0  0  0
  1  2  1  0  0  0  0
  1 19  1  0  0  0  0
  1 20  1  0  0  0  0
  1 21  1  0  0  0  0
  2 18  2  0  0  0  0
  2  3  1  0  0  0  0
  3  4  2  0  0  0  0
  3 22  1  0  0  0  0
  4  5  1  0  0  0  0
  4 23  1  0  0  0  0
  5  6  1  0  0  0  0
  5 17  2  0  0  0  0
  6  7  1  0  0  0  0
  6 24  1  0  0  0  0
  6 25  1  0  0  0  0
  7  8  1  0  0  0  0
  7 26  1  0  0  0  0
  7 27  1  0  0  0  0
  8  9  1  0  0  0  0
  9 16  2  0  0  0  0
  9 10  1  0  0  0  0
 10 11  2  0  0  0  0
 10 28  1  0  0  0  0
 11 12  1  0  0  0  0
 11 29  1  0  0  0  0
 12 13  1  0  0  0  0
 12 14  2  0  0  0  0
 14 15  1  0  0  0  0
 14 16  1  0  0  0  0
 16 30  1  0  0  0  0
 17 18  1  0  0  0  0
 17 31  1  0  0  0  0
M  END
$$$$
