ZINC000000036068      none
 OpenBabel11202420153D

 32 33  0  0  0  0  0  0  0  0999 V2000
   35.3044   32.4563   55.8985 C   0  0  0  0  0  0  0  0  0  0  0  0
   34.7391   33.7784   55.6966 O   0  0  0  0  0  0  0  0  0  0  0  0
   34.1098   34.3409   56.7456 C   0  0  0  0  0  0  0  0  0  0  0  0
   34.0350   33.7432   57.8010 O   0  0  0  0  0  0  0  0  0  0  0  0
   33.5629   35.5668   56.6252 N   0  0  0  0  0  0  0  0  0  0  0  0
   32.9087   36.1514   57.7157 C   0  0  0  0  0  0  0  0  0  0  0  0
   32.8900   37.5326   57.8569 C   0  0  0  0  0  0  0  0  0  0  0  0
   32.2478   38.1063   58.9367 C   0  0  0  0  0  0  0  0  0  0  0  0
   31.6150   37.3071   59.8711 C   0  0  0  0  0  0  0  0  0  0  0  0
   30.9103   37.9366   61.0450 C   0  0  0  0  0  0  0  0  0  0  0  0
   31.2644   37.1879   62.3040 C   0  0  0  0  0  0  0  0  0  0  0  0
   30.2869   36.8491   63.2270 C   0  0  0  0  0  0  0  0  0  0  0  0
   30.6486   36.1585   64.3681 C   0  0  0  0  0  0  0  0  0  0  0  0
   31.9070   35.8311   64.5880 N   0  0  0  0  0  0  0  0  0  0  0  0
   32.8634   36.1410   63.7348 C   0  0  0  0  0  0  0  0  0  0  0  0
   32.5765   36.8267   62.5697 C   0  0  0  0  0  0  0  0  0  0  0  0
   31.6279   35.9315   59.7308 C   0  0  0  0  0  0  0  0  0  0  0  0
   32.2728   35.3515   58.6560 C   0  0  0  0  0  0  0  0  0  0  0  0
   34.5116   31.7601   56.1719 H   0  0  0  0  0  0  0  0  0  0  0  0
   35.7810   32.1205   54.9776 H   0  0  0  0  0  0  0  0  0  0  0  0
   36.0450   32.4959   56.6973 H   0  0  0  0  0  0  0  0  0  0  0  0
   33.6226   36.0438   55.7828 H   0  0  0  0  0  0  0  0  0  0  0  0
   33.3806   38.1575   57.1253 H   0  0  0  0  0  0  0  0  0  0  0  0
   32.2361   39.1804   59.0491 H   0  0  0  0  0  0  0  0  0  0  0  0
   31.2222   38.9767   61.1409 H   0  0  0  0  0  0  0  0  0  0  0  0
   29.8325   37.8935   60.8877 H   0  0  0  0  0  0  0  0  0  0  0  0
   29.2553   37.1182   63.0546 H   0  0  0  0  0  0  0  0  0  0  0  0
   29.8927   35.8878   65.0904 H   0  0  0  0  0  0  0  0  0  0  0  0
   33.8828   35.8561   63.9490 H   0  0  0  0  0  0  0  0  0  0  0  0
   33.3642   37.0783   61.8751 H   0  0  0  0  0  0  0  0  0  0  0  0
   31.1327   35.3100   60.4622 H   0  0  0  0  0  0  0  0  0  0  0  0
   32.2821   34.2771   58.5467 H   0  0  0  0  0  0  0  0  0  0  0  0
  1  2  1  0  0  0  0
  1 19  1  0  0  0  0
  1 20  1  0  0  0  0
  1 21  1  0  0  0  0
  2  3  1  0  0  0  0
  3  4  2  0  0  0  0
  3  5  1  0  0  0  0
  5  6  1  0  0  0  0
  5 22  1  0  0  0  0
  6 18  2  0  0  0  0
  6  7  1  0  0  0  0
  7  8  2  0  0  0  0
  7 23  1  0  0  0  0
  8  9  1  0  0  0  0
  8 24  1  0  0  0  0
  9 10  1  0  0  0  0
  9 17  2  0  0  0  0
 10 11  1  0  0  0  0
 10 25  1  0  0  0  0
 10 26  1  0  0  0  0
 11 16  2  0  0  0  0
 11 12  1  0  0  0  0
 12 13  2  0  0  0  0
 12 27  1  0  0  0  0
 13 14  1  0  0  0  0
 13 28  1  0  0  0  0
 14 15  2  0  0  0  0
 15 16  1  0  0  0  0
 15 29  1  0  0  0  0
 16 30  1  0  0  0  0
 17 18  1  0  0  0  0
 17 31  1  0  0  0  0
 18 32  1  0  0  0  0
M  END
$$$$
