ZINC000000025074      none
 OpenBabel11202420153D

 31 32  0  0  1  0  0  0  0  0999 V2000
   32.4861   36.4278   62.5307 C   0  0  0  0  0  0  0  0  0  0  0  0
   31.6059   37.3011   61.6341 C   0  0  1  0  0  0  0  0  0  0  0  0
   31.7105   38.3453   61.9285 H   0  0  0  0  0  0  0  0  0  0  0  0
   32.0337   37.1384   60.1984 C   0  0  0  0  0  0  0  0  0  0  0  0
   31.9833   35.8781   59.6055 C   0  0  0  0  0  0  0  0  0  0  0  0
   32.3628   35.6968   58.3112 C   0  0  0  0  0  0  0  0  0  0  0  0
   32.8124   36.7949   57.5582 C   0  0  0  0  0  0  0  0  0  0  0  0
   33.2121   36.6470   56.2189 C   0  0  0  0  0  0  0  0  0  0  0  0
   33.6416   37.7333   55.5204 C   0  0  0  0  0  0  0  0  0  0  0  0
   33.6917   38.9937   56.1132 C   0  0  0  0  0  0  0  0  0  0  0  0
   33.3130   39.1747   57.4078 C   0  0  0  0  0  0  0  0  0  0  0  0
   32.8633   38.0765   58.1609 C   0  0  0  0  0  0  0  0  0  0  0  0
   32.4584   38.2255   59.4983 C   0  0  0  0  0  0  0  0  0  0  0  0
   30.2064   36.8916   61.7760 N   0  0  0  0  0  0  0  0  0  0  0  0
   29.4852   36.4322   60.6474 O   0  0  0  0  0  0  0  0  0  0  0  0
   29.6054   36.9523   62.9808 C   0  0  0  0  0  0  0  0  0  0  0  0
   28.6178   36.0873   63.2855 N   0  0  0  0  0  0  0  0  0  0  0  0
   29.9508   37.7905   63.7910 O   0  0  0  0  0  0  0  0  0  0  0  0
   32.3813   35.3835   62.2363 H   0  0  0  0  0  0  0  0  0  0  0  0
   33.5274   36.7324   62.4250 H   0  0  0  0  0  0  0  0  0  0  0  0
   32.1766   36.5454   63.5692 H   0  0  0  0  0  0  0  0  0  0  0  0
   31.6382   35.0325   60.1820 H   0  0  0  0  0  0  0  0  0  0  0  0
   32.3190   34.7141   57.8653 H   0  0  0  0  0  0  0  0  0  0  0  0
   33.1789   35.6764   55.7465 H   0  0  0  0  0  0  0  0  0  0  0  0
   33.9477   37.6169   54.4913 H   0  0  0  0  0  0  0  0  0  0  0  0
   34.0365   39.8393   55.5367 H   0  0  0  0  0  0  0  0  0  0  0  0
   33.3578   40.1571   57.8543 H   0  0  0  0  0  0  0  0  0  0  0  0
   32.4877   39.1970   59.9693 H   0  0  0  0  0  0  0  0  0  0  0  0
   29.9995   36.4242   59.8286 H   0  0  0  0  0  0  0  0  0  0  0  0
   28.1825   36.1336   64.1511 H   0  0  0  0  0  0  0  0  0  0  0  0
   28.3421   35.4186   62.6392 H   0  0  0  0  0  0  0  0  0  0  0  0
  1  2  1  0  0  0  0
  1 19  1  0  0  0  0
  1 20  1  0  0  0  0
  1 21  1  0  0  0  0
  2  3  1  1  0  0  0
  2  4  1  0  0  0  0
  2 14  1  0  0  0  0
  4 13  2  0  0  0  0
  4  5  1  0  0  0  0
  5  6  2  0  0  0  0
  5 22  1  0  0  0  0
  6  7  1  0  0  0  0
  6 23  1  0  0  0  0
  7 12  2  0  0  0  0
  7  8  1  0  0  0  0
  8  9  2  0  0  0  0
  8 24  1  0  0  0  0
  9 10  1  0  0  0  0
  9 25  1  0  0  0  0
 10 11  2  0  0  0  0
 10 26  1  0  0  0  0
 11 12  1  0  0  0  0
 11 27  1  0  0  0  0
 12 13  1  0  0  0  0
 13 28  1  0  0  0  0
 14 15  1  0  0  0  0
 14 16  1  0  0  0  0
 15 29  1  0  0  0  0
 16 17  1  0  0  0  0
 16 18  2  0  0  0  0
 17 30  1  0  0  0  0
 17 31  1  0  0  0  0
M  END
$$$$
