ZINC000000013143      none
 OpenBabel11202420153D

 39 41  0  0  0  0  0  0  0  0999 V2000
   32.8740   40.1203   68.2851 C   0  0  0  0  0  0  0  0  0  0  0  0
   32.8352   38.6539   67.9395 C   0  0  0  0  0  0  0  0  0  0  0  0
   32.3546   38.2374   66.7133 C   0  0  0  0  0  0  0  0  0  0  0  0
   32.3378   36.8684   66.4386 C   0  0  0  0  0  0  0  0  0  0  0  0
   31.8649   36.4003   65.2234 N   0  0  0  0  0  0  0  0  0  0  0  0
   32.7123   36.8616   64.1157 C   0  0  0  0  0  0  0  0  0  0  0  0
   32.2670   36.1802   62.8174 C   0  0  0  0  0  0  0  0  0  0  0  0
   30.8261   36.4143   62.6373 N   0  0  0  0  0  0  0  0  0  0  0  0
   30.3443   36.9013   61.4767 C   0  0  0  0  0  0  0  0  0  0  0  0
   29.1505   37.0887   61.3453 O   0  0  0  0  0  0  0  0  0  0  0  0
   31.2676   37.2074   60.3634 C   0  0  0  0  0  0  0  0  0  0  0  0
   31.8315   38.4791   60.2500 C   0  0  0  0  0  0  0  0  0  0  0  0
   32.6965   38.7566   59.2116 C   0  0  0  0  0  0  0  0  0  0  0  0
   32.9966   37.7809   58.2777 C   0  0  0  0  0  0  0  0  0  0  0  0
   32.4364   36.5200   58.3811 C   0  0  0  0  0  0  0  0  0  0  0  0
   31.5746   36.2276   59.4179 C   0  0  0  0  0  0  0  0  0  0  0  0
   29.9253   36.1036   63.7577 C   0  0  0  0  0  0  0  0  0  0  0  0
   30.4628   36.7880   65.0189 C   0  0  0  0  0  0  0  0  0  0  0  0
   32.7777   36.0209   67.3642 N   0  0  0  0  0  0  0  0  0  0  0  0
   33.2324   36.4630   68.5190 C   0  0  0  0  0  0  0  0  0  0  0  0
   33.2613   37.7484   68.8085 N   0  0  0  0  0  0  0  0  0  0  0  0
   31.9367   40.4060   68.7625 H   0  0  0  0  0  0  0  0  0  0  0  0
   33.7022   40.3107   68.9676 H   0  0  0  0  0  0  0  0  0  0  0  0
   33.0113   40.7045   67.3752 H   0  0  0  0  0  0  0  0  0  0  0  0
   32.0012   38.9524   65.9853 H   0  0  0  0  0  0  0  0  0  0  0  0
   33.7517   36.6065   64.3223 H   0  0  0  0  0  0  0  0  0  0  0  0
   32.6171   37.9424   64.0105 H   0  0  0  0  0  0  0  0  0  0  0  0
   32.8148   36.6032   61.9754 H   0  0  0  0  0  0  0  0  0  0  0  0
   32.4586   35.1092   62.8817 H   0  0  0  0  0  0  0  0  0  0  0  0
   31.5946   39.2429   60.9758 H   0  0  0  0  0  0  0  0  0  0  0  0
   33.1370   39.7389   59.1252 H   0  0  0  0  0  0  0  0  0  0  0  0
   33.6713   38.0044   57.4645 H   0  0  0  0  0  0  0  0  0  0  0  0
   32.6749   35.7628   57.6488 H   0  0  0  0  0  0  0  0  0  0  0  0
   31.1385   35.2428   59.4979 H   0  0  0  0  0  0  0  0  0  0  0  0
   28.9248   36.4758   63.5372 H   0  0  0  0  0  0  0  0  0  0  0  0
   29.8919   35.0251   63.9122 H   0  0  0  0  0  0  0  0  0  0  0  0
   30.3983   37.8697   64.9013 H   0  0  0  0  0  0  0  0  0  0  0  0
   29.8705   36.4799   65.8805 H   0  0  0  0  0  0  0  0  0  0  0  0
   33.5873   35.7521   69.2504 H   0  0  0  0  0  0  0  0  0  0  0  0
  1  2  1  0  0  0  0
  1 22  1  0  0  0  0
  1 23  1  0  0  0  0
  1 24  1  0  0  0  0
  2 21  2  0  0  0  0
  2  3  1  0  0  0  0
  3  4  2  0  0  0  0
  3 25  1  0  0  0  0
  4  5  1  0  0  0  0
  4 19  1  0  0  0  0
  5 18  1  0  0  0  0
  5  6  1  0  0  0  0
  6  7  1  0  0  0  0
  6 26  1  0  0  0  0
  6 27  1  0  0  0  0
  7  8  1  0  0  0  0
  7 28  1  0  0  0  0
  7 29  1  0  0  0  0
  8  9  1  0  0  0  0
  8 17  1  0  0  0  0
  9 10  2  0  0  0  0
  9 11  1  0  0  0  0
 11 16  2  0  0  0  0
 11 12  1  0  0  0  0
 12 13  2  0  0  0  0
 12 30  1  0  0  0  0
 13 14  1  0  0  0  0
 13 31  1  0  0  0  0
 14 15  2  0  0  0  0
 14 32  1  0  0  0  0
 15 16  1  0  0  0  0
 15 33  1  0  0  0  0
 16 34  1  0  0  0  0
 17 18  1  0  0  0  0
 17 35  1  0  0  0  0
 17 36  1  0  0  0  0
 18 37  1  0  0  0  0
 18 38  1  0  0  0  0
 19 20  2  0  0  0  0
 20 21  1  0  0  0  0
 20 39  1  0  0  0  0
M  END
$$$$
