ZINC000000000479      none
 OpenBabel11202420153D

 31 32  0  0  1  0  0  0  0  0999 V2000
   28.6728   36.2778   62.7938 C   0  0  0  0  0  0  0  0  0  0  0  0
   29.8472   37.2583   62.7991 C   0  0  0  0  0  0  0  0  0  0  0  0
   29.5904   38.3781   63.8095 C   0  0  0  0  0  0  0  0  0  0  0  0
   31.0907   36.5527   63.1351 N   0  0  0  0  0  0  0  0  0  0  0  0
   32.0688   36.9945   62.3138 C   0  0  0  0  0  0  0  0  0  0  0  0
   33.2262   36.6321   62.3167 O   0  0  0  0  0  0  0  0  0  0  0  0
   31.4550   38.0237   61.3895 C   0  0  1  0  0  0  0  0  0  0  0  0
   31.7122   39.0303   61.7197 H   0  0  0  0  0  0  0  0  0  0  0  0
   31.9239   37.8024   59.9745 C   0  0  0  0  0  0  0  0  0  0  0  0
   32.5878   38.7577   59.3391 C   0  0  0  0  0  0  0  0  0  0  0  0
   33.0477   38.5405   57.9512 C   0  0  0  0  0  0  0  0  0  0  0  0
   33.1696   37.2447   57.4482 C   0  0  0  0  0  0  0  0  0  0  0  0
   33.5990   37.0489   56.1516 C   0  0  0  0  0  0  0  0  0  0  0  0
   33.9079   38.1339   55.3507 C   0  0  0  0  0  0  0  0  0  0  0  0
   33.7944   39.4208   55.8453 C   0  0  0  0  0  0  0  0  0  0  0  0
   33.3611   39.6304   57.1384 C   0  0  0  0  0  0  0  0  0  0  0  0
   30.0331   37.8122   61.4843 O   0  0  0  0  0  0  0  0  0  0  0  0
   28.5727   35.8255   63.7805 H   0  0  0  0  0  0  0  0  0  0  0  0
   27.7556   36.8107   62.5436 H   0  0  0  0  0  0  0  0  0  0  0  0
   28.8537   35.4983   62.0535 H   0  0  0  0  0  0  0  0  0  0  0  0
   30.4201   39.0847   63.7878 H   0  0  0  0  0  0  0  0  0  0  0  0
   28.6661   38.8952   63.5516 H   0  0  0  0  0  0  0  0  0  0  0  0
   29.5017   37.9523   64.8090 H   0  0  0  0  0  0  0  0  0  0  0  0
   31.1926   35.8826   63.8289 H   0  0  0  0  0  0  0  0  0  0  0  0
   31.7188   36.8653   59.4781 H   0  0  0  0  0  0  0  0  0  0  0  0
   32.7929   39.6946   59.8355 H   0  0  0  0  0  0  0  0  0  0  0  0
   32.9289   36.3969   58.0724 H   0  0  0  0  0  0  0  0  0  0  0  0
   33.6940   36.0464   55.7611 H   0  0  0  0  0  0  0  0  0  0  0  0
   34.2433   37.9752   54.3364 H   0  0  0  0  0  0  0  0  0  0  0  0
   34.0417   40.2634   55.2165 H   0  0  0  0  0  0  0  0  0  0  0  0
   33.2684   40.6359   57.5218 H   0  0  0  0  0  0  0  0  0  0  0  0
  1  2  1  0  0  0  0
  1 18  1  0  0  0  0
  1 19  1  0  0  0  0
  1 20  1  0  0  0  0
  2 17  1  0  0  0  0
  2  3  1  0  0  0  0
  2  4  1  0  0  0  0
  3 21  1  0  0  0  0
  3 22  1  0  0  0  0
  3 23  1  0  0  0  0
  4  5  1  0  0  0  0
  4 24  1  0  0  0  0
  5  6  2  0  0  0  0
  5  7  1  0  0  0  0
  7  8  1  1  0  0  0
  7  9  1  0  0  0  0
  7 17  1  0  0  0  0
  9 10  2  0  0  0  0
  9 25  1  0  0  0  0
 10 11  1  0  0  0  0
 10 26  1  0  0  0  0
 11 16  2  0  0  0  0
 11 12  1  0  0  0  0
 12 13  2  0  0  0  0
 12 27  1  0  0  0  0
 13 14  1  0  0  0  0
 13 28  1  0  0  0  0
 14 15  2  0  0  0  0
 14 29  1  0  0  0  0
 15 16  1  0  0  0  0
 15 30  1  0  0  0  0
 16 31  1  0  0  0  0
M  END
$$$$
