ZINC000000057712      none
 OpenBabel11202420153D

 30 32  0  0  0  0  0  0  0  0999 V2000
   34.5857   37.0322   51.9744 C   0  0  0  0  0  0  0  0  0  0  0  0
   35.1868   38.0740   52.6651 C   0  0  0  0  0  0  0  0  0  0  0  0
   34.7987   38.3104   53.9734 C   0  0  0  0  0  0  0  0  0  0  0  0
   33.8300   37.4915   54.5506 C   0  0  0  0  0  0  0  0  0  0  0  0
   33.4070   37.7285   55.9515 C   0  0  0  0  0  0  0  0  0  0  0  0
   33.4375   38.9282   56.4512 N   0  0  0  0  0  0  0  0  0  0  0  0
   33.0221   39.1573   57.8358 C   0  0  0  0  0  0  0  0  0  0  0  0
   31.8754   38.2163   58.2013 C   0  0  0  0  0  0  0  0  0  0  0  0
   32.2259   36.8388   57.8521 N   0  0  0  0  0  0  0  0  0  0  0  0
   32.9440   36.5966   56.7958 C   0  0  0  0  0  0  0  0  0  0  0  0
   33.2975   35.2026   56.4362 C   0  0  0  0  0  0  0  0  0  0  0  0
   32.4373   34.1610   56.7789 C   0  0  0  0  0  0  0  0  0  0  0  0
   32.7792   32.8644   56.4323 C   0  0  0  0  0  0  0  0  0  0  0  0
   33.9754   32.6519   55.7632 C   0  0  0  0  0  0  0  0  0  0  0  0
   34.7843   33.7332   55.4584 C   0  0  0  0  0  0  0  0  0  0  0  0
   34.4332   34.9562   55.7954 N   0  0  0  0  0  0  0  0  0  0  0  0
   33.2795   36.5048   53.8549 N   0  0  0  0  0  0  0  0  0  0  0  0
   33.6265   36.2613   52.6088 C   0  0  0  0  0  0  0  0  0  0  0  0
   34.8629   36.8245   50.9514 H   0  0  0  0  0  0  0  0  0  0  0  0
   35.9379   38.6894   52.1921 H   0  0  0  0  0  0  0  0  0  0  0  0
   35.2431   39.1158   54.5394 H   0  0  0  0  0  0  0  0  0  0  0  0
   33.8657   38.9748   58.5014 H   0  0  0  0  0  0  0  0  0  0  0  0
   32.6919   40.1900   57.9480 H   0  0  0  0  0  0  0  0  0  0  0  0
   30.9785   38.5104   57.6563 H   0  0  0  0  0  0  0  0  0  0  0  0
   31.6848   38.2803   59.2726 H   0  0  0  0  0  0  0  0  0  0  0  0
   31.5153   34.3626   57.3040 H   0  0  0  0  0  0  0  0  0  0  0  0
   32.1309   32.0373   56.6808 H   0  0  0  0  0  0  0  0  0  0  0  0
   34.2729   31.6523   55.4827 H   0  0  0  0  0  0  0  0  0  0  0  0
   35.7163   33.5712   54.9374 H   0  0  0  0  0  0  0  0  0  0  0  0
   33.1566   35.4494   52.0740 H   0  0  0  0  0  0  0  0  0  0  0  0
  1 18  2  0  0  0  0
  1  2  1  0  0  0  0
  1 19  1  0  0  0  0
  2  3  2  0  0  0  0
  2 20  1  0  0  0  0
  3  4  1  0  0  0  0
  3 21  1  0  0  0  0
  4  5  1  0  0  0  0
  4 17  2  0  0  0  0
  5 10  1  0  0  0  0
  5  6  2  0  0  0  0
  6  7  1  0  0  0  0
  7  8  1  0  0  0  0
  7 22  1  0  0  0  0
  7 23  1  0  0  0  0
  8  9  1  0  0  0  0
  8 24  1  0  0  0  0
  8 25  1  0  0  0  0
  9 10  2  0  0  0  0
 10 11  1  0  0  0  0
 11 16  2  0  0  0  0
 11 12  1  0  0  0  0
 12 13  2  0  0  0  0
 12 26  1  0  0  0  0
 13 14  1  0  0  0  0
 13 27  1  0  0  0  0
 14 15  2  0  0  0  0
 14 28  1  0  0  0  0
 15 16  1  0  0  0  0
 15 29  1  0  0  0  0
 17 18  1  0  0  0  0
 18 30  1  0  0  0  0
M  END
$$$$
