ZINC000000001052      none
 OpenBabel11202420153D

 15 16  0  0  0  0  0  0  0  0999 V2000
   34.7306   40.4355   55.0250 O   0  0  0  0  0  0  0  0  0  0  0  0
   34.2137   39.7781   55.9078 C   0  0  0  0  0  0  0  0  0  0  0  0
   33.9371   38.4610   55.8370 N   0  0  0  0  0  0  0  0  0  0  0  0
   34.1132   37.8775   55.0822 H   0  0  0  0  0  0  0  0  0  0  0  0
   33.3511   38.0900   57.0473 C   0  0  0  0  0  0  0  0  0  0  0  0
   32.8679   36.8885   57.5414 C   0  0  0  0  0  0  0  0  0  0  0  0
   32.3299   36.8350   58.8135 C   0  0  0  0  0  0  0  0  0  0  0  0
   31.7246   35.3314   59.4353 Cl  0  0  0  0  0  0  0  0  0  0  0  0
   32.2730   37.9788   59.5940 C   0  0  0  0  0  0  0  0  0  0  0  0
   31.5347   37.8965   61.3330 Br  0  0  0  0  0  0  0  0  0  0  0  0
   32.7532   39.1795   59.1066 C   0  0  0  0  0  0  0  0  0  0  0  0
   33.2942   39.2415   57.8319 C   0  0  0  0  0  0  0  0  0  0  0  0
   33.8297   40.2519   57.1035 O   0  0  0  0  0  0  0  0  0  0  0  0
   32.9120   35.9964   56.9344 H   0  0  0  0  0  0  0  0  0  0  0  0
   32.7028   40.0694   59.7164 H   0  0  0  0  0  0  0  0  0  0  0  0
  1  2  2  0  0  0  0
  2 13  1  0  0  0  0
  2  3  1  0  0  0  0
  3  4  1  0  0  0  0
  3  5  1  0  0  0  0
  5 12  2  0  0  0  0
  5  6  1  0  0  0  0
  6  7  2  0  0  0  0
  6 14  1  0  0  0  0
  7  8  1  0  0  0  0
  7  9  1  0  0  0  0
  9 10  1  0  0  0  0
  9 11  2  0  0  0  0
 11 12  1  0  0  0  0
 11 15  1  0  0  0  0
 12 13  1  0  0  0  0
M  END
$$$$
