ZINC000000033499      none
 OpenBabel11202420153D

 37 39  0  0  0  0  0  0  0  0999 V2000
   32.9760   39.2438   66.9139 C   0  0  0  0  0  0  0  0  0  0  0  0
   31.7009   39.9317   66.4223 C   0  0  0  0  0  0  0  0  0  0  0  0
   31.5525   39.7127   64.9946 O   0  0  0  0  0  0  0  0  0  0  0  0
   30.8653   38.6186   64.6115 C   0  0  0  0  0  0  0  0  0  0  0  0
   29.9771   38.1816   65.3162 O   0  0  0  0  0  0  0  0  0  0  0  0
   31.1918   37.9520   63.3379 C   0  0  0  0  0  0  0  0  0  0  0  0
   30.5448   38.3387   62.1593 C   0  0  0  0  0  0  0  0  0  0  0  0
   30.8509   37.7142   60.9720 C   0  0  0  0  0  0  0  0  0  0  0  0
   31.8028   36.6986   60.9430 C   0  0  0  0  0  0  0  0  0  0  0  0
   32.1096   36.0689   59.7408 N   0  0  0  0  0  0  0  0  0  0  0  0
   32.6084   36.8049   58.6827 C   0  0  0  0  0  0  0  0  0  0  0  0
   32.7907   38.1011   58.8197 N   0  0  0  0  0  0  0  0  0  0  0  0
   33.2746   38.8128   57.7936 C   0  0  0  0  0  0  0  0  0  0  0  0
   33.5842   40.0629   57.5442 N   0  0  0  0  0  0  0  0  0  0  0  0
   33.9963   40.1505   56.4062 O   0  0  0  0  0  0  0  0  0  0  0  0
   34.0351   39.1193   55.7676 N   0  0  0  0  0  0  0  0  0  0  0  0
   33.5989   38.1343   56.5160 C   0  0  0  0  0  0  0  0  0  0  0  0
   33.4055   36.8142   56.3972 N   0  0  0  0  0  0  0  0  0  0  0  0
   32.9291   36.1329   57.4173 C   0  0  0  0  0  0  0  0  0  0  0  0
   32.7292   34.7721   57.2966 N   0  0  0  0  0  0  0  0  0  0  0  0
   33.0472   34.0939   56.0376 C   0  0  0  0  0  0  0  0  0  0  0  0
   32.4442   36.3078   62.1153 C   0  0  0  0  0  0  0  0  0  0  0  0
   32.1467   36.9318   63.3051 C   0  0  0  0  0  0  0  0  0  0  0  0
   33.0874   39.4083   67.9857 H   0  0  0  0  0  0  0  0  0  0  0  0
   32.9115   38.1741   66.7153 H   0  0  0  0  0  0  0  0  0  0  0  0
   33.8376   39.6592   66.3912 H   0  0  0  0  0  0  0  0  0  0  0  0
   31.7654   41.0015   66.6210 H   0  0  0  0  0  0  0  0  0  0  0  0
   30.8392   39.5164   66.9451 H   0  0  0  0  0  0  0  0  0  0  0  0
   29.8060   39.1261   62.1812 H   0  0  0  0  0  0  0  0  0  0  0  0
   30.3518   38.0119   60.0616 H   0  0  0  0  0  0  0  0  0  0  0  0
   31.9734   35.1132   59.6453 H   0  0  0  0  0  0  0  0  0  0  0  0
   32.3783   34.2652   58.0454 H   0  0  0  0  0  0  0  0  0  0  0  0
   32.4473   34.5205   55.2336 H   0  0  0  0  0  0  0  0  0  0  0  0
   34.1051   34.2258   55.8109 H   0  0  0  0  0  0  0  0  0  0  0  0
   32.8254   33.0308   56.1315 H   0  0  0  0  0  0  0  0  0  0  0  0
   33.1790   35.5166   62.0901 H   0  0  0  0  0  0  0  0  0  0  0  0
   32.6476   36.6310   64.2133 H   0  0  0  0  0  0  0  0  0  0  0  0
  1  2  1  0  0  0  0
  1 24  1  0  0  0  0
  1 25  1  0  0  0  0
  1 26  1  0  0  0  0
  2  3  1  0  0  0  0
  2 27  1  0  0  0  0
  2 28  1  0  0  0  0
  3  4  1  0  0  0  0
  4  5  2  0  0  0  0
  4  6  1  0  0  0  0
  6 23  2  0  0  0  0
  6  7  1  0  0  0  0
  7  8  2  0  0  0  0
  7 29  1  0  0  0  0
  8  9  1  0  0  0  0
  8 30  1  0  0  0  0
  9 10  1  0  0  0  0
  9 22  2  0  0  0  0
 10 11  1  0  0  0  0
 10 31  1  0  0  0  0
 11 19  1  0  0  0  0
 11 12  2  0  0  0  0
 12 13  1  0  0  0  0
 13 17  1  0  0  0  0
 13 14  2  0  0  0  0
 14 15  1  0  0  0  0
 15 16  1  0  0  0  0
 16 17  2  0  0  0  0
 17 18  1  0  0  0  0
 18 19  2  0  0  0  0
 19 20  1  0  0  0  0
 20 21  1  0  0  0  0
 20 32  1  0  0  0  0
 21 33  1  0  0  0  0
 21 34  1  0  0  0  0
 21 35  1  0  0  0  0
 22 23  1  0  0  0  0
 22 36  1  0  0  0  0
 23 37  1  0  0  0  0
M  END
$$$$
