ZINC000000026388      none
 OpenBabel11202420153D

 39 42  0  0  0  0  0  0  0  0999 V2000
   30.9412   32.4697   61.7769 O   0  0  0  0  0  0  0  0  0  0  0  0
   31.2608   32.9938   60.7262 C   0  0  0  0  0  0  0  0  0  0  0  0
   31.0896   32.4514   59.5061 N   0  0  0  0  0  0  0  0  0  0  0  0
   30.6946   31.5852   59.3205 H   0  0  0  0  0  0  0  0  0  0  0  0
   31.5759   33.3454   58.5555 C   0  0  0  0  0  0  0  0  0  0  0  0
   31.6543   33.3089   57.1703 C   0  0  0  0  0  0  0  0  0  0  0  0
   32.1967   34.3731   56.4822 C   0  0  0  0  0  0  0  0  0  0  0  0
   32.6779   35.4843   57.1756 C   0  0  0  0  0  0  0  0  0  0  0  0
   33.2657   36.6253   56.4314 C   0  0  0  0  0  0  0  0  0  0  0  0
   33.1805   37.9165   56.9494 C   0  0  0  0  0  0  0  0  0  0  0  0
   33.7243   38.9752   56.2510 C   0  0  0  0  0  0  0  0  0  0  0  0
   34.3575   38.7569   55.0407 C   0  0  0  0  0  0  0  0  0  0  0  0
   34.4500   37.4762   54.5236 C   0  0  0  0  0  0  0  0  0  0  0  0
   35.2468   37.2104   53.0043 Cl  0  0  0  0  0  0  0  0  0  0  0  0
   33.9095   36.4092   55.2150 C   0  0  0  0  0  0  0  0  0  0  0  0
   32.6014   35.5252   58.5651 C   0  0  0  0  0  0  0  0  0  0  0  0
   32.0514   34.4580   59.2546 C   0  0  0  0  0  0  0  0  0  0  0  0
   31.8386   34.2039   60.6079 N   0  0  0  0  0  0  0  0  0  0  0  0
   32.1845   35.1008   61.7135 C   0  0  0  0  0  0  0  0  0  0  0  0
   31.0201   36.0123   62.0042 C   0  0  0  0  0  0  0  0  0  0  0  0
   31.1110   36.9479   63.0176 C   0  0  0  0  0  0  0  0  0  0  0  0
   30.0447   37.7873   63.2811 C   0  0  0  0  0  0  0  0  0  0  0  0
   28.8843   37.6847   62.5380 C   0  0  0  0  0  0  0  0  0  0  0  0
   28.7909   36.7448   61.5278 C   0  0  0  0  0  0  0  0  0  0  0  0
   29.8591   35.9089   61.2609 C   0  0  0  0  0  0  0  0  0  0  0  0
   31.2860   32.4486   56.6311 H   0  0  0  0  0  0  0  0  0  0  0  0
   32.2529   34.3452   55.4040 H   0  0  0  0  0  0  0  0  0  0  0  0
   32.6858   38.0887   57.8939 H   0  0  0  0  0  0  0  0  0  0  0  0
   33.6549   39.9765   56.6499 H   0  0  0  0  0  0  0  0  0  0  0  0
   34.7809   39.5885   54.4972 H   0  0  0  0  0  0  0  0  0  0  0  0
   33.9820   35.4101   54.8110 H   0  0  0  0  0  0  0  0  0  0  0  0
   32.9699   36.3860   59.1033 H   0  0  0  0  0  0  0  0  0  0  0  0
   32.4150   34.5114   62.6009 H   0  0  0  0  0  0  0  0  0  0  0  0
   33.0536   35.6982   61.4384 H   0  0  0  0  0  0  0  0  0  0  0  0
   32.0163   37.0256   63.6012 H   0  0  0  0  0  0  0  0  0  0  0  0
   30.1171   38.5207   64.0706 H   0  0  0  0  0  0  0  0  0  0  0  0
   28.0490   38.3366   62.7467 H   0  0  0  0  0  0  0  0  0  0  0  0
   27.8837   36.6638   60.9474 H   0  0  0  0  0  0  0  0  0  0  0  0
   29.7866   35.1750   60.4721 H   0  0  0  0  0  0  0  0  0  0  0  0
  1  2  2  0  0  0  0
  2 18  1  0  0  0  0
  2  3  1  0  0  0  0
  3  4  1  0  0  0  0
  3  5  1  0  0  0  0
  5 17  2  0  0  0  0
  5  6  1  0  0  0  0
  6  7  2  0  0  0  0
  6 26  1  0  0  0  0
  7  8  1  0  0  0  0
  7 27  1  0  0  0  0
  8  9  1  0  0  0  0
  8 16  2  0  0  0  0
  9 15  2  0  0  0  0
  9 10  1  0  0  0  0
 10 11  2  0  0  0  0
 10 28  1  0  0  0  0
 11 12  1  0  0  0  0
 11 29  1  0  0  0  0
 12 13  2  0  0  0  0
 12 30  1  0  0  0  0
 13 14  1  0  0  0  0
 13 15  1  0  0  0  0
 15 31  1  0  0  0  0
 16 17  1  0  0  0  0
 16 32  1  0  0  0  0
 17 18  1  0  0  0  0
 18 19  1  0  0  0  0
 19 20  1  0  0  0  0
 19 33  1  0  0  0  0
 19 34  1  0  0  0  0
 20 25  2  0  0  0  0
 20 21  1  0  0  0  0
 21 22  2  0  0  0  0
 21 35  1  0  0  0  0
 22 23  1  0  0  0  0
 22 36  1  0  0  0  0
 23 24  2  0  0  0  0
 23 37  1  0  0  0  0
 24 25  1  0  0  0  0
 24 38  1  0  0  0  0
 25 39  1  0  0  0  0
M  END
$$$$
