ZINC000000043480      none
 OpenBabel11202420153D

 19 20  0  0  0  0  0  0  0  0999 V2000
   33.1062   40.2263   59.3053 O   0  0  0  0  0  0  0  0  0  0  0  0
   32.7796   38.8413   59.4365 C   0  0  0  0  0  0  0  0  0  0  0  0
   33.0337   38.1572   58.1662 N   0  0  0  0  0  0  0  0  0  0  0  0
   33.5007   38.7273   57.0227 C   0  0  0  0  0  0  0  0  0  0  0  0
   33.6111   37.8289   56.0880 N   0  0  0  0  0  0  0  0  0  0  0  0
   33.2138   36.6217   56.5660 C   0  0  0  0  0  0  0  0  0  0  0  0
   33.1247   35.3449   56.0050 C   0  0  0  0  0  0  0  0  0  0  0  0
   32.6746   34.2994   56.7603 C   0  0  0  0  0  0  0  0  0  0  0  0
   32.3037   34.4905   58.0839 C   0  0  0  0  0  0  0  0  0  0  0  0
   32.3828   35.7412   58.6581 C   0  0  0  0  0  0  0  0  0  0  0  0
   32.8378   36.8156   57.9059 C   0  0  0  0  0  0  0  0  0  0  0  0
   32.9623   40.7423   60.1103 H   0  0  0  0  0  0  0  0  0  0  0  0
   33.3943   38.3955   60.2186 H   0  0  0  0  0  0  0  0  0  0  0  0
   31.7267   38.7396   59.6997 H   0  0  0  0  0  0  0  0  0  0  0  0
   33.7464   39.7727   56.9082 H   0  0  0  0  0  0  0  0  0  0  0  0
   33.4108   35.1851   54.9759 H   0  0  0  0  0  0  0  0  0  0  0  0
   32.6072   33.3142   56.3231 H   0  0  0  0  0  0  0  0  0  0  0  0
   31.9501   33.6535   58.6679 H   0  0  0  0  0  0  0  0  0  0  0  0
   32.0928   35.8844   59.6885 H   0  0  0  0  0  0  0  0  0  0  0  0
  1  2  1  0  0  0  0
  1 12  1  0  0  0  0
  2  3  1  0  0  0  0
  2 13  1  0  0  0  0
  2 14  1  0  0  0  0
  3 11  1  0  0  0  0
  3  4  1  0  0  0  0
  4  5  2  0  0  0  0
  4 15  1  0  0  0  0
  5  6  1  0  0  0  0
  6 11  2  0  0  0  0
  6  7  1  0  0  0  0
  7  8  2  0  0  0  0
  7 16  1  0  0  0  0
  8  9  1  0  0  0  0
  8 17  1  0  0  0  0
  9 10  2  0  0  0  0
  9 18  1  0  0  0  0
 10 11  1  0  0  0  0
 10 19  1  0  0  0  0
M  END
$$$$
