ZINC000000029502      none
 OpenBabel11202420163D

 24 24  0  0  0  0  0  0  0  0999 V2000
   32.0096   36.6695   60.4429 C   0  0  0  0  0  0  0  0  0  0  0  0
   32.3543   36.1171   59.1709 O   0  0  0  0  0  0  0  0  0  0  0  0
   32.8487   36.9754   58.2383 C   0  0  0  0  0  0  0  0  0  0  0  0
   32.9927   38.3194   58.5396 C   0  0  0  0  0  0  0  0  0  0  0  0
   33.4904   39.1922   57.5893 C   0  0  0  0  0  0  0  0  0  0  0  0
   33.8448   38.7266   56.3356 C   0  0  0  0  0  0  0  0  0  0  0  0
   34.4684   39.8277   55.1471 Cl  0  0  0  0  0  0  0  0  0  0  0  0
   33.7037   37.3856   56.0274 C   0  0  0  0  0  0  0  0  0  0  0  0
   33.2055   36.5051   56.9765 C   0  0  0  0  0  0  0  0  0  0  0  0
   33.0614   35.1478   56.6671 N   0  0  0  0  0  0  0  0  0  0  0  0
   32.7517   34.6822   55.1084 S   0  0  0  0  0  0  0  0  0  0  0  0
   34.3926   34.4422   54.3732 C   0  0  0  0  0  0  0  0  0  0  0  0
   32.0782   33.4381   55.2415 O   0  0  0  0  0  0  0  0  0  0  0  0
   32.1053   35.8070   54.5286 O   0  0  0  0  0  0  0  0  0  0  0  0
   32.8940   37.1170   60.8963 H   0  0  0  0  0  0  0  0  0  0  0  0
   31.2427   37.4329   60.3117 H   0  0  0  0  0  0  0  0  0  0  0  0
   31.6292   35.8799   61.0909 H   0  0  0  0  0  0  0  0  0  0  0  0
   32.7163   38.6862   59.5171 H   0  0  0  0  0  0  0  0  0  0  0  0
   33.6023   40.2399   57.8263 H   0  0  0  0  0  0  0  0  0  0  0  0
   33.9816   37.0241   55.0483 H   0  0  0  0  0  0  0  0  0  0  0  0
   33.1428   34.4798   57.3658 H   0  0  0  0  0  0  0  0  0  0  0  0
   34.9305   33.6736   54.9283 H   0  0  0  0  0  0  0  0  0  0  0  0
   34.2835   34.1307   53.3344 H   0  0  0  0  0  0  0  0  0  0  0  0
   34.9501   35.3780   54.4154 H   0  0  0  0  0  0  0  0  0  0  0  0
  1  2  1  0  0  0  0
  1 15  1  0  0  0  0
  1 16  1  0  0  0  0
  1 17  1  0  0  0  0
  2  3  1  0  0  0  0
  3  9  2  0  0  0  0
  3  4  1  0  0  0  0
  4  5  2  0  0  0  0
  4 18  1  0  0  0  0
  5  6  1  0  0  0  0
  5 19  1  0  0  0  0
  6  7  1  0  0  0  0
  6  8  2  0  0  0  0
  8  9  1  0  0  0  0
  8 20  1  0  0  0  0
  9 10  1  0  0  0  0
 10 11  1  0  0  0  0
 10 21  1  0  0  0  0
 11 12  1  0  0  0  0
 11 13  2  0  0  0  0
 11 14  2  0  0  0  0
 12 22  1  0  0  0  0
 12 23  1  0  0  0  0
 12 24  1  0  0  0  0
M  END
$$$$
