ZINC000000034441      none
 OpenBabel11202420153D

 42 44  0  0  0  0  0  0  0  0999 V2000
   32.0692   34.6438   59.1076 C   0  0  0  0  0  0  0  0  0  0  0  0
   32.2349   36.1334   58.9502 C   0  0  0  0  0  0  0  0  0  0  0  0
   32.6916   36.6560   57.7560 C   0  0  0  0  0  0  0  0  0  0  0  0
   32.8440   38.0225   57.6108 C   0  0  0  0  0  0  0  0  0  0  0  0
   32.5394   38.8707   58.6599 C   0  0  0  0  0  0  0  0  0  0  0  0
   32.0769   38.3555   59.8545 C   0  0  0  0  0  0  0  0  0  0  0  0
   31.9281   36.9824   60.0058 C   0  0  0  0  0  0  0  0  0  0  0  0
   31.4656   36.4574   61.2146 N   0  0  0  0  0  0  0  0  0  0  0  0
   32.4170   36.7226   62.3021 C   0  0  0  0  0  0  0  0  0  0  0  0
   31.9652   35.9798   63.5640 C   0  0  0  0  0  0  0  0  0  0  0  0
   30.5719   36.3525   63.8519 N   0  0  0  0  0  0  0  0  0  0  0  0
   30.2097   36.7823   65.0769 C   0  0  0  0  0  0  0  0  0  0  0  0
   29.0531   37.0862   65.2971 O   0  0  0  0  0  0  0  0  0  0  0  0
   31.2164   36.8839   66.1506 C   0  0  0  0  0  0  0  0  0  0  0  0
   31.9279   38.0716   66.3365 C   0  0  0  0  0  0  0  0  0  0  0  0
   32.8627   38.1620   67.3448 C   0  0  0  0  0  0  0  0  0  0  0  0
   33.1013   37.0793   68.1758 C   0  0  0  0  0  0  0  0  0  0  0  0
   32.4056   35.8996   68.0030 C   0  0  0  0  0  0  0  0  0  0  0  0
   31.4602   35.7913   66.9937 C   0  0  0  0  0  0  0  0  0  0  0  0
   30.7753   34.6329   66.8232 O   0  0  0  0  0  0  0  0  0  0  0  0
   29.5829   36.2379   62.7693 C   0  0  0  0  0  0  0  0  0  0  0  0
   30.1296   36.9762   61.5370 C   0  0  0  0  0  0  0  0  0  0  0  0
   31.0365   34.3685   58.8932 H   0  0  0  0  0  0  0  0  0  0  0  0
   32.7338   34.1290   58.4139 H   0  0  0  0  0  0  0  0  0  0  0  0
   32.3173   34.3566   60.1294 H   0  0  0  0  0  0  0  0  0  0  0  0
   32.9304   35.9964   56.9349 H   0  0  0  0  0  0  0  0  0  0  0  0
   33.2019   38.4283   56.6762 H   0  0  0  0  0  0  0  0  0  0  0  0
   32.6592   39.9377   58.5431 H   0  0  0  0  0  0  0  0  0  0  0  0
   31.8351   39.0187   60.6718 H   0  0  0  0  0  0  0  0  0  0  0  0
   32.4506   37.7935   62.5028 H   0  0  0  0  0  0  0  0  0  0  0  0
   33.4085   36.3758   62.0112 H   0  0  0  0  0  0  0  0  0  0  0  0
   32.6008   36.2631   64.4029 H   0  0  0  0  0  0  0  0  0  0  0  0
   32.0305   34.9039   63.4021 H   0  0  0  0  0  0  0  0  0  0  0  0
   31.7453   38.9181   65.6911 H   0  0  0  0  0  0  0  0  0  0  0  0
   33.4122   39.0806   67.4876 H   0  0  0  0  0  0  0  0  0  0  0  0
   33.8360   37.1589   68.9634 H   0  0  0  0  0  0  0  0  0  0  0  0
   32.5970   35.0600   68.6548 H   0  0  0  0  0  0  0  0  0  0  0  0
   30.1398   34.6551   66.0947 H   0  0  0  0  0  0  0  0  0  0  0  0
   29.4231   35.1868   62.5291 H   0  0  0  0  0  0  0  0  0  0  0  0
   28.6428   36.6919   63.0825 H   0  0  0  0  0  0  0  0  0  0  0  0
   30.1951   38.0435   61.7484 H   0  0  0  0  0  0  0  0  0  0  0  0
   29.4622   36.8133   60.6907 H   0  0  0  0  0  0  0  0  0  0  0  0
  1  2  1  0  0  0  0
  1 23  1  0  0  0  0
  1 24  1  0  0  0  0
  1 25  1  0  0  0  0
  2  7  2  0  0  0  0
  2  3  1  0  0  0  0
  3  4  2  0  0  0  0
  3 26  1  0  0  0  0
  4  5  1  0  0  0  0
  4 27  1  0  0  0  0
  5  6  2  0  0  0  0
  5 28  1  0  0  0  0
  6  7  1  0  0  0  0
  6 29  1  0  0  0  0
  7  8  1  0  0  0  0
  8 22  1  0  0  0  0
  8  9  1  0  0  0  0
  9 10  1  0  0  0  0
  9 30  1  0  0  0  0
  9 31  1  0  0  0  0
 10 11  1  0  0  0  0
 10 32  1  0  0  0  0
 10 33  1  0  0  0  0
 11 12  1  0  0  0  0
 11 21  1  0  0  0  0
 12 13  2  0  0  0  0
 12 14  1  0  0  0  0
 14 19  2  0  0  0  0
 14 15  1  0  0  0  0
 15 16  2  0  0  0  0
 15 34  1  0  0  0  0
 16 17  1  0  0  0  0
 16 35  1  0  0  0  0
 17 18  2  0  0  0  0
 17 36  1  0  0  0  0
 18 19  1  0  0  0  0
 18 37  1  0  0  0  0
 19 20  1  0  0  0  0
 20 38  1  0  0  0  0
 21 22  1  0  0  0  0
 21 39  1  0  0  0  0
 21 40  1  0  0  0  0
 22 41  1  0  0  0  0
 22 42  1  0  0  0  0
M  END
$$$$
