ZINC000000035573      none
 OpenBabel11202420153D

 37 38  0  0  0  0  0  0  0  0999 V2000
   32.7495   40.4146   68.7060 N   0  0  0  0  0  0  0  0  0  0  0  0
   33.2472   40.7728   67.1678 S   0  0  0  0  0  0  0  0  0  0  0  0
   34.6609   40.6290   67.1597 O   0  0  0  0  0  0  0  0  0  0  0  0
   32.5864   41.9765   66.8021 O   0  0  0  0  0  0  0  0  0  0  0  0
   32.6127   39.5157   66.1086 C   0  0  0  0  0  0  0  0  0  0  0  0
   33.3599   38.3774   65.8648 C   0  0  0  0  0  0  0  0  0  0  0  0
   32.8658   37.3901   65.0349 C   0  0  0  0  0  0  0  0  0  0  0  0
   31.6179   37.5415   64.4446 C   0  0  0  0  0  0  0  0  0  0  0  0
   31.1147   36.5435   63.6029 N   0  0  0  0  0  0  0  0  0  0  0  0
   31.9602   35.7794   62.8833 C   0  0  0  0  0  0  0  0  0  0  0  0
   33.1572   35.9569   62.9653 O   0  0  0  0  0  0  0  0  0  0  0  0
   31.4180   34.7085   61.9722 C   0  0  0  0  0  0  0  0  0  0  0  0
   30.5095   35.3465   60.9194 C   0  0  0  0  0  0  0  0  0  0  0  0
   31.3005   36.3417   60.1100 C   0  0  0  0  0  0  0  0  0  0  0  0
   31.3662   37.6628   60.5116 C   0  0  0  0  0  0  0  0  0  0  0  0
   32.0957   38.5746   59.7717 C   0  0  0  0  0  0  0  0  0  0  0  0
   32.7509   38.1674   58.6246 C   0  0  0  0  0  0  0  0  0  0  0  0
   32.6809   36.8474   58.2202 C   0  0  0  0  0  0  0  0  0  0  0  0
   31.9557   35.9346   58.9629 C   0  0  0  0  0  0  0  0  0  0  0  0
   30.8730   38.6882   64.6868 C   0  0  0  0  0  0  0  0  0  0  0  0
   31.3703   39.6694   65.5222 C   0  0  0  0  0  0  0  0  0  0  0  0
   32.2089   39.6260   68.8696 H   0  0  0  0  0  0  0  0  0  0  0  0
   32.9984   40.9936   69.4435 H   0  0  0  0  0  0  0  0  0  0  0  0
   34.3303   38.2602   66.3242 H   0  0  0  0  0  0  0  0  0  0  0  0
   33.4494   36.5015   64.8450 H   0  0  0  0  0  0  0  0  0  0  0  0
   30.1575   36.4014   63.5374 H   0  0  0  0  0  0  0  0  0  0  0  0
   32.2452   34.1990   61.4777 H   0  0  0  0  0  0  0  0  0  0  0  0
   30.8460   33.9886   62.5576 H   0  0  0  0  0  0  0  0  0  0  0  0
   30.1173   34.5720   60.2603 H   0  0  0  0  0  0  0  0  0  0  0  0
   29.6824   35.8559   61.4139 H   0  0  0  0  0  0  0  0  0  0  0  0
   30.8506   37.9817   61.4053 H   0  0  0  0  0  0  0  0  0  0  0  0
   32.1500   39.6060   60.0874 H   0  0  0  0  0  0  0  0  0  0  0  0
   33.3172   38.8808   58.0442 H   0  0  0  0  0  0  0  0  0  0  0  0
   33.1925   36.5295   57.3238 H   0  0  0  0  0  0  0  0  0  0  0  0
   31.9007   34.9034   58.6467 H   0  0  0  0  0  0  0  0  0  0  0  0
   29.9040   38.8109   64.2259 H   0  0  0  0  0  0  0  0  0  0  0  0
   30.7896   40.5594   65.7145 H   0  0  0  0  0  0  0  0  0  0  0  0
  1  2  1  0  0  0  0
  1 22  1  0  0  0  0
  1 23  1  0  0  0  0
  2  3  2  0  0  0  0
  2  4  2  0  0  0  0
  2  5  1  0  0  0  0
  5 21  2  0  0  0  0
  5  6  1  0  0  0  0
  6  7  2  0  0  0  0
  6 24  1  0  0  0  0
  7  8  1  0  0  0  0
  7 25  1  0  0  0  0
  8  9  1  0  0  0  0
  8 20  2  0  0  0  0
  9 10  1  0  0  0  0
  9 26  1  0  0  0  0
 10 11  2  0  0  0  0
 10 12  1  0  0  0  0
 12 13  1  0  0  0  0
 12 27  1  0  0  0  0
 12 28  1  0  0  0  0
 13 14  1  0  0  0  0
 13 29  1  0  0  0  0
 13 30  1  0  0  0  0
 14 19  2  0  0  0  0
 14 15  1  0  0  0  0
 15 16  2  0  0  0  0
 15 31  1  0  0  0  0
 16 17  1  0  0  0  0
 16 32  1  0  0  0  0
 17 18  2  0  0  0  0
 17 33  1  0  0  0  0
 18 19  1  0  0  0  0
 18 34  1  0  0  0  0
 19 35  1  0  0  0  0
 20 21  1  0  0  0  0
 20 36  1  0  0  0  0
 21 37  1  0  0  0  0
M  END
$$$$
