ZINC000000039846      none
 OpenBabel11202420153D

 23 23  0  0  0  0  0  0  0  0999 V2000
   33.2834   39.9143   59.3105 N   0  0  0  0  0  0  0  0  0  0  0  0
   32.4246   38.8768   59.3629 C   0  0  0  0  0  0  0  0  0  0  0  0
   31.5751   38.8360   60.2274 O   0  0  0  0  0  0  0  0  0  0  0  0
   32.5203   37.7677   58.3472 C   0  0  0  0  0  0  0  0  0  0  0  0
   33.0386   38.3037   57.0862 N   0  0  0  0  0  0  0  0  0  0  0  0
   33.7635   37.5165   56.2667 C   0  0  0  0  0  0  0  0  0  0  0  0
   33.9870   36.3619   56.5738 O   0  0  0  0  0  0  0  0  0  0  0  0
   34.2866   38.0575   54.9941 C   0  0  0  0  0  0  0  0  0  0  0  0
   34.5452   39.4232   54.8668 C   0  0  0  0  0  0  0  0  0  0  0  0
   35.0337   39.9216   53.6766 C   0  0  0  0  0  0  0  0  0  0  0  0
   35.2672   39.0708   52.6108 C   0  0  0  0  0  0  0  0  0  0  0  0
   35.0130   37.7161   52.7304 C   0  0  0  0  0  0  0  0  0  0  0  0
   34.5244   37.2048   53.9150 C   0  0  0  0  0  0  0  0  0  0  0  0
   33.9629   39.9470   58.6191 H   0  0  0  0  0  0  0  0  0  0  0  0
   33.2219   40.6282   59.9642 H   0  0  0  0  0  0  0  0  0  0  0  0
   31.5312   37.3407   58.1813 H   0  0  0  0  0  0  0  0  0  0  0  0
   33.1928   36.9936   58.7167 H   0  0  0  0  0  0  0  0  0  0  0  0
   32.8603   39.2252   56.8410 H   0  0  0  0  0  0  0  0  0  0  0  0
   34.3591   40.0890   55.6965 H   0  0  0  0  0  0  0  0  0  0  0  0
   35.2343   40.9781   53.5767 H   0  0  0  0  0  0  0  0  0  0  0  0
   35.6494   39.4661   51.6811 H   0  0  0  0  0  0  0  0  0  0  0  0
   35.1977   37.0573   51.8948 H   0  0  0  0  0  0  0  0  0  0  0  0
   34.3260   36.1472   54.0070 H   0  0  0  0  0  0  0  0  0  0  0  0
  1  2  1  0  0  0  0
  1 14  1  0  0  0  0
  1 15  1  0  0  0  0
  2  3  2  0  0  0  0
  2  4  1  0  0  0  0
  4  5  1  0  0  0  0
  4 16  1  0  0  0  0
  4 17  1  0  0  0  0
  5  6  1  0  0  0  0
  5 18  1  0  0  0  0
  6  7  2  0  0  0  0
  6  8  1  0  0  0  0
  8 13  2  0  0  0  0
  8  9  1  0  0  0  0
  9 10  2  0  0  0  0
  9 19  1  0  0  0  0
 10 11  1  0  0  0  0
 10 20  1  0  0  0  0
 11 12  2  0  0  0  0
 11 21  1  0  0  0  0
 12 13  1  0  0  0  0
 12 22  1  0  0  0  0
 13 23  1  0  0  0  0
M  END
$$$$
