ZINC000000004823      none
 OpenBabel11202420153D

 36 38  0  0  0  0  0  0  0  0999 V2000
   29.7496   38.1856   62.1695 O   0  0  0  0  0  0  0  0  0  0  0  0
   30.5271   37.9892   63.0787 C   0  0  0  0  0  0  0  0  0  0  0  0
   30.2811   38.3315   64.5345 C   0  0  0  0  0  0  0  0  0  0  0  0
   31.5721   37.8742   65.2248 C   0  0  0  0  0  0  0  0  0  0  0  0
   31.2781   36.8034   66.2832 C   0  0  0  0  0  0  0  0  0  0  0  0
   32.3046   37.0972   67.4082 C   0  0  0  0  0  0  0  0  0  0  0  0
   32.3690   38.6454   67.4207 C   0  0  0  0  0  0  0  0  0  0  0  0
   32.2646   39.0417   65.9310 C   0  0  0  0  0  0  0  0  0  0  0  0
   32.4159   37.3176   64.1105 C   0  0  0  0  0  0  0  0  0  0  0  0
   33.5246   36.8435   64.2344 O   0  0  0  0  0  0  0  0  0  0  0  0
   31.7414   37.4353   62.9564 N   0  0  0  0  0  0  0  0  0  0  0  0
   32.2664   37.0046   61.7139 O   0  0  0  0  0  0  0  0  0  0  0  0
   31.3869   37.2138   60.6073 C   0  0  0  0  0  0  0  0  0  0  0  0
   32.0438   36.7217   59.3434 C   0  0  0  0  0  0  0  0  0  0  0  0
   32.8174   37.5817   58.5866 C   0  0  0  0  0  0  0  0  0  0  0  0
   33.4239   37.1290   57.4298 C   0  0  0  0  0  0  0  0  0  0  0  0
   33.2482   35.8191   57.0244 C   0  0  0  0  0  0  0  0  0  0  0  0
   32.4704   34.9606   57.7784 C   0  0  0  0  0  0  0  0  0  0  0  0
   31.8681   35.4119   58.9380 C   0  0  0  0  0  0  0  0  0  0  0  0
   30.1379   39.4049   64.6586 H   0  0  0  0  0  0  0  0  0  0  0  0
   29.4212   37.7829   64.9187 H   0  0  0  0  0  0  0  0  0  0  0  0
   30.2600   36.9061   66.6584 H   0  0  0  0  0  0  0  0  0  0  0  0
   31.4364   35.8062   65.8723 H   0  0  0  0  0  0  0  0  0  0  0  0
   33.2780   36.6724   67.1631 H   0  0  0  0  0  0  0  0  0  0  0  0
   31.9469   36.7182   68.3656 H   0  0  0  0  0  0  0  0  0  0  0  0
   33.3162   38.9844   67.8400 H   0  0  0  0  0  0  0  0  0  0  0  0
   31.5320   39.0574   67.9844 H   0  0  0  0  0  0  0  0  0  0  0  0
   33.2597   39.1947   65.5135 H   0  0  0  0  0  0  0  0  0  0  0  0
   31.6705   39.9493   65.8245 H   0  0  0  0  0  0  0  0  0  0  0  0
   30.4592   36.6656   60.7719 H   0  0  0  0  0  0  0  0  0  0  0  0
   31.1684   38.2775   60.5128 H   0  0  0  0  0  0  0  0  0  0  0  0
   32.9510   38.6062   58.9010 H   0  0  0  0  0  0  0  0  0  0  0  0
   34.0314   37.7999   56.8405 H   0  0  0  0  0  0  0  0  0  0  0  0
   33.7185   35.4667   56.1182 H   0  0  0  0  0  0  0  0  0  0  0  0
   32.3328   33.9374   57.4615 H   0  0  0  0  0  0  0  0  0  0  0  0
   31.2600   34.7412   59.5269 H   0  0  0  0  0  0  0  0  0  0  0  0
  1  2  2  0  0  0  0
  2 11  1  0  0  0  0
  2  3  1  0  0  0  0
  3  4  1  0  0  0  0
  3 20  1  0  0  0  0
  3 21  1  0  0  0  0
  4  8  1  0  0  0  0
  4  5  1  0  0  0  0
  4  9  1  0  0  0  0
  5  6  1  0  0  0  0
  5 22  1  0  0  0  0
  5 23  1  0  0  0  0
  6  7  1  0  0  0  0
  6 24  1  0  0  0  0
  6 25  1  0  0  0  0
  7  8  1  0  0  0  0
  7 26  1  0  0  0  0
  7 27  1  0  0  0  0
  8 28  1  0  0  0  0
  8 29  1  0  0  0  0
  9 10  2  0  0  0  0
  9 11  1  0  0  0  0
 11 12  1  0  0  0  0
 12 13  1  0  0  0  0
 13 14  1  0  0  0  0
 13 30  1  0  0  0  0
 13 31  1  0  0  0  0
 14 19  2  0  0  0  0
 14 15  1  0  0  0  0
 15 16  2  0  0  0  0
 15 32  1  0  0  0  0
 16 17  1  0  0  0  0
 16 33  1  0  0  0  0
 17 18  2  0  0  0  0
 17 34  1  0  0  0  0
 18 19  1  0  0  0  0
 18 35  1  0  0  0  0
 19 36  1  0  0  0  0
M  END
$$$$
