ZINC000000028945      none
 OpenBabel11202420163D

 46 49  0  0  0  0  0  0  0  0999 V2000
   33.7857   39.6360   56.2947 C   0  0  0  0  0  0  0  0  0  0  0  0
   33.4237   38.3261   56.8418 N   0  0  0  0  0  0  0  0  0  0  0  0
   33.5156   37.1311   56.1809 C   0  0  0  0  0  0  0  0  0  0  0  0
   33.0886   36.1227   56.9996 C   0  0  0  0  0  0  0  0  0  0  0  0
   32.7147   36.7019   58.2301 C   0  0  0  0  0  0  0  0  0  0  0  0
   32.2191   36.1834   59.4335 C   0  0  0  0  0  0  0  0  0  0  0  0
   31.9414   37.0220   60.4736 C   0  0  0  0  0  0  0  0  0  0  0  0
   31.4039   36.4584   61.7637 C   0  0  0  0  0  0  0  0  0  0  0  0
   32.3661   36.7913   62.9057 C   0  0  0  0  0  0  0  0  0  0  0  0
   31.8204   36.2192   64.2155 C   0  0  0  0  0  0  0  0  0  0  0  0
   30.4497   36.8327   64.5083 C   0  0  0  0  0  0  0  0  0  0  0  0
   29.4876   36.4998   63.3663 C   0  0  0  0  0  0  0  0  0  0  0  0
   30.0333   37.0721   62.0564 C   0  0  0  0  0  0  0  0  0  0  0  0
   32.1549   38.3893   60.3564 C   0  0  0  0  0  0  0  0  0  0  0  0
   32.6464   38.9239   59.1859 C   0  0  0  0  0  0  0  0  0  0  0  0
   32.9327   38.0904   58.1103 C   0  0  0  0  0  0  0  0  0  0  0  0
   33.0525   34.6739   56.5890 C   0  0  0  0  0  0  0  0  0  0  0  0
   33.0580   34.5781   55.0606 C   0  0  0  0  0  0  0  0  0  0  0  0
   34.2192   35.3914   54.4785 C   0  0  0  0  0  0  0  0  0  0  0  0
   33.9874   36.8575   54.8071 C   0  0  0  0  0  0  0  0  0  0  0  0
   34.1899   37.8019   53.9428 N   0  0  0  0  0  0  0  0  0  0  0  0
   34.6424   37.4838   52.6393 O   0  0  0  0  0  0  0  0  0  0  0  0
   34.8345   39.8418   56.5086 H   0  0  0  0  0  0  0  0  0  0  0  0
   33.6281   39.6355   55.2162 H   0  0  0  0  0  0  0  0  0  0  0  0
   33.1639   40.4055   56.7524 H   0  0  0  0  0  0  0  0  0  0  0  0
   32.0534   35.1212   59.5367 H   0  0  0  0  0  0  0  0  0  0  0  0
   31.3061   35.3765   61.6748 H   0  0  0  0  0  0  0  0  0  0  0  0
   33.3427   36.3542   62.6973 H   0  0  0  0  0  0  0  0  0  0  0  0
   32.4640   37.8732   62.9948 H   0  0  0  0  0  0  0  0  0  0  0  0
   32.5060   36.4563   65.0292 H   0  0  0  0  0  0  0  0  0  0  0  0
   31.7227   35.1372   64.1266 H   0  0  0  0  0  0  0  0  0  0  0  0
   30.5475   37.9147   64.5973 H   0  0  0  0  0  0  0  0  0  0  0  0
   30.0610   36.4251   65.4415 H   0  0  0  0  0  0  0  0  0  0  0  0
   28.5111   36.9369   63.5749 H   0  0  0  0  0  0  0  0  0  0  0  0
   29.3898   35.4179   63.2773 H   0  0  0  0  0  0  0  0  0  0  0  0
   30.1311   38.1540   62.1455 H   0  0  0  0  0  0  0  0  0  0  0  0
   29.3477   36.8349   61.2428 H   0  0  0  0  0  0  0  0  0  0  0  0
   31.9339   39.0391   61.1903 H   0  0  0  0  0  0  0  0  0  0  0  0
   32.8095   39.9883   59.1039 H   0  0  0  0  0  0  0  0  0  0  0  0
   32.1478   34.2078   56.9792 H   0  0  0  0  0  0  0  0  0  0  0  0
   33.9273   34.1606   56.9885 H   0  0  0  0  0  0  0  0  0  0  0  0
   32.1162   34.9652   54.6717 H   0  0  0  0  0  0  0  0  0  0  0  0
   33.1670   33.5339   54.7679 H   0  0  0  0  0  0  0  0  0  0  0  0
   34.2551   35.2585   53.3973 H   0  0  0  0  0  0  0  0  0  0  0  0
   35.1583   35.0597   54.9213 H   0  0  0  0  0  0  0  0  0  0  0  0
   34.7645   38.2533   52.0666 H   0  0  0  0  0  0  0  0  0  0  0  0
  1  2  1  0  0  0  0
  1 23  1  0  0  0  0
  1 24  1  0  0  0  0
  1 25  1  0  0  0  0
  2 16  1  0  0  0  0
  2  3  1  0  0  0  0
  3 20  1  0  0  0  0
  3  4  2  0  0  0  0
  4  5  1  0  0  0  0
  4 17  1  0  0  0  0
  5 16  2  0  0  0  0
  5  6  1  0  0  0  0
  6  7  2  0  0  0  0
  6 26  1  0  0  0  0
  7  8  1  0  0  0  0
  7 14  1  0  0  0  0
  8 13  1  0  0  0  0
  8  9  1  0  0  0  0
  8 27  1  0  0  0  0
  9 10  1  0  0  0  0
  9 28  1  0  0  0  0
  9 29  1  0  0  0  0
 10 11  1  0  0  0  0
 10 30  1  0  0  0  0
 10 31  1  0  0  0  0
 11 12  1  0  0  0  0
 11 32  1  0  0  0  0
 11 33  1  0  0  0  0
 12 13  1  0  0  0  0
 12 34  1  0  0  0  0
 12 35  1  0  0  0  0
 13 36  1  0  0  0  0
 13 37  1  0  0  0  0
 14 15  2  0  0  0  0
 14 38  1  0  0  0  0
 15 16  1  0  0  0  0
 15 39  1  0  0  0  0
 17 18  1  0  0  0  0
 17 40  1  0  0  0  0
 17 41  1  0  0  0  0
 18 19  1  0  0  0  0
 18 42  1  0  0  0  0
 18 43  1  0  0  0  0
 19 20  1  0  0  0  0
 19 44  1  0  0  0  0
 19 45  1  0  0  0  0
 20 21  2  0  0  0  0
 21 22  1  0  0  0  0
 22 46  1  0  0  0  0
M  END
$$$$
