ZINC000000001975      none
 OpenBabel11202420153D

 34 36  0  0  0  0  0  0  0  0999 V2000
   29.0458   35.3441   65.0786 C   0  0  0  0  0  0  0  0  0  0  0  0
   29.8371   34.5490   64.0723 C   0  0  0  0  0  0  0  0  0  0  0  0
   30.5210   35.0610   63.0103 C   0  0  0  0  0  0  0  0  0  0  0  0
   31.1295   33.9190   62.3209 C   0  0  0  0  0  0  0  0  0  0  0  0
   30.7701   32.8185   63.0097 C   0  0  0  0  0  0  0  0  0  0  0  0
   29.9928   33.2022   64.0700 N   0  0  0  0  0  0  0  0  0  0  0  0
   29.4089   32.2888   65.0555 C   0  0  0  0  0  0  0  0  0  0  0  0
   31.9316   33.9881   61.1736 N   0  0  0  0  0  0  0  0  0  0  0  0
   31.6837   34.9001   60.2224 C   0  0  0  0  0  0  0  0  0  0  0  0
   32.4343   34.9680   59.2718 O   0  0  0  0  0  0  0  0  0  0  0  0
   30.5195   35.8375   60.2854 C   0  0  0  0  0  0  0  0  0  0  0  0
   30.6558   36.8134   61.3564 N   0  0  0  0  0  0  0  0  0  0  0  0
   30.6305   36.4725   62.6103 C   0  0  0  0  0  0  0  0  0  0  0  0
   30.7126   37.5218   63.6533 C   0  0  0  0  0  0  0  0  0  0  0  0
   29.7458   38.5250   63.7146 C   0  0  0  0  0  0  0  0  0  0  0  0
   29.8242   39.4959   64.6920 C   0  0  0  0  0  0  0  0  0  0  0  0
   30.8659   39.4826   65.6022 C   0  0  0  0  0  0  0  0  0  0  0  0
   31.8311   38.4934   65.5427 C   0  0  0  0  0  0  0  0  0  0  0  0
   31.7600   37.5135   64.5738 C   0  0  0  0  0  0  0  0  0  0  0  0
   29.6699   35.5547   65.9471 H   0  0  0  0  0  0  0  0  0  0  0  0
   28.7226   36.2823   64.6275 H   0  0  0  0  0  0  0  0  0  0  0  0
   28.1725   34.7706   65.3892 H   0  0  0  0  0  0  0  0  0  0  0  0
   31.0487   31.8037   62.7668 H   0  0  0  0  0  0  0  0  0  0  0  0
   30.1050   32.1545   65.8834 H   0  0  0  0  0  0  0  0  0  0  0  0
   29.2123   31.3251   64.5858 H   0  0  0  0  0  0  0  0  0  0  0  0
   28.4749   32.7076   65.4303 H   0  0  0  0  0  0  0  0  0  0  0  0
   32.6724   33.3712   61.0669 H   0  0  0  0  0  0  0  0  0  0  0  0
   29.6091   35.2602   60.4467 H   0  0  0  0  0  0  0  0  0  0  0  0
   30.4380   36.3647   59.3348 H   0  0  0  0  0  0  0  0  0  0  0  0
   28.9349   38.5393   63.0014 H   0  0  0  0  0  0  0  0  0  0  0  0
   29.0731   40.2704   64.7437 H   0  0  0  0  0  0  0  0  0  0  0  0
   30.9257   40.2475   66.3623 H   0  0  0  0  0  0  0  0  0  0  0  0
   32.6417   38.4877   66.2565 H   0  0  0  0  0  0  0  0  0  0  0  0
   32.5139   36.7415   64.5286 H   0  0  0  0  0  0  0  0  0  0  0  0
  1  2  1  0  0  0  0
  1 20  1  0  0  0  0
  1 21  1  0  0  0  0
  1 22  1  0  0  0  0
  2  6  1  0  0  0  0
  2  3  2  0  0  0  0
  3 13  1  0  0  0  0
  3  4  1  0  0  0  0
  4  5  2  0  0  0  0
  4  8  1  0  0  0  0
  5  6  1  0  0  0  0
  5 23  1  0  0  0  0
  6  7  1  0  0  0  0
  7 24  1  0  0  0  0
  7 25  1  0  0  0  0
  7 26  1  0  0  0  0
  8  9  1  0  0  0  0
  8 27  1  0  0  0  0
  9 10  2  0  0  0  0
  9 11  1  0  0  0  0
 11 12  1  0  0  0  0
 11 28  1  0  0  0  0
 11 29  1  0  0  0  0
 12 13  2  0  0  0  0
 13 14  1  0  0  0  0
 14 19  2  0  0  0  0
 14 15  1  0  0  0  0
 15 16  2  0  0  0  0
 15 30  1  0  0  0  0
 16 17  1  0  0  0  0
 16 31  1  0  0  0  0
 17 18  2  0  0  0  0
 17 32  1  0  0  0  0
 18 19  1  0  0  0  0
 18 33  1  0  0  0  0
 19 34  1  0  0  0  0
M  END
$$$$
