ZINC000000033586      none
 OpenBabel11202420153D

 27 29  0  0  0  0  0  0  0  0999 V2000
   28.3006   37.1176   62.1976 C   0  0  0  0  0  0  0  0  0  0  0  0
   29.7990   37.1268   62.0360 C   0  0  0  0  0  0  0  0  0  0  0  0
   30.6113   37.3152   63.1408 C   0  0  0  0  0  0  0  0  0  0  0  0
   31.9880   37.3252   63.0021 C   0  0  0  0  0  0  0  0  0  0  0  0
   32.5608   37.1472   61.7601 C   0  0  0  0  0  0  0  0  0  0  0  0
   31.7470   36.9564   60.6401 C   0  0  0  0  0  0  0  0  0  0  0  0
   32.3517   36.7658   59.3088 C   0  0  0  0  0  0  0  0  0  0  0  0
   32.6728   35.4862   58.8457 C   0  0  0  0  0  0  0  0  0  0  0  0
   32.4214   34.3315   59.6546 C   0  0  0  0  0  0  0  0  0  0  0  0
   32.2221   33.4155   60.2963 N   0  0  0  0  0  0  0  0  0  0  0  0
   33.2499   35.3565   57.5652 C   0  0  0  0  0  0  0  0  0  0  0  0
   33.4769   36.4197   56.8321 N   0  0  0  0  0  0  0  0  0  0  0  0
   33.1726   37.6496   57.2672 C   0  0  0  0  0  0  0  0  0  0  0  0
   33.3077   38.8490   56.7135 N   0  0  0  0  0  0  0  0  0  0  0  0
   32.8562   39.7806   57.5436 C   0  0  0  0  0  0  0  0  0  0  0  0
   32.4261   39.2169   58.6464 N   0  0  0  0  0  0  0  0  0  0  0  0
   32.6115   37.8359   58.4996 N   0  0  0  0  0  0  0  0  0  0  0  0
   30.3571   36.9528   60.7872 C   0  0  0  0  0  0  0  0  0  0  0  0
   27.9163   38.1308   62.0804 H   0  0  0  0  0  0  0  0  0  0  0  0
   27.8575   36.4709   61.4403 H   0  0  0  0  0  0  0  0  0  0  0  0
   28.0444   36.7442   63.1891 H   0  0  0  0  0  0  0  0  0  0  0  0
   30.1685   37.4555   64.1157 H   0  0  0  0  0  0  0  0  0  0  0  0
   32.6156   37.4732   63.8685 H   0  0  0  0  0  0  0  0  0  0  0  0
   33.6354   37.1556   61.6533 H   0  0  0  0  0  0  0  0  0  0  0  0
   33.5061   34.3778   57.1871 H   0  0  0  0  0  0  0  0  0  0  0  0
   32.8487   40.8420   57.3432 H   0  0  0  0  0  0  0  0  0  0  0  0
   29.7219   36.8103   59.9254 H   0  0  0  0  0  0  0  0  0  0  0  0
  1  2  1  0  0  0  0
  1 19  1  0  0  0  0
  1 20  1  0  0  0  0
  1 21  1  0  0  0  0
  2 18  2  0  0  0  0
  2  3  1  0  0  0  0
  3  4  2  0  0  0  0
  3 22  1  0  0  0  0
  4  5  1  0  0  0  0
  4 23  1  0  0  0  0
  5  6  2  0  0  0  0
  5 24  1  0  0  0  0
  6  7  1  0  0  0  0
  6 18  1  0  0  0  0
  7 17  1  0  0  0  0
  7  8  2  0  0  0  0
  8  9  1  0  0  0  0
  8 11  1  0  0  0  0
  9 10  3  0  0  0  0
 11 12  2  0  0  0  0
 11 25  1  0  0  0  0
 12 13  1  0  0  0  0
 13 17  1  0  0  0  0
 13 14  2  0  0  0  0
 14 15  1  0  0  0  0
 15 16  2  0  0  0  0
 15 26  1  0  0  0  0
 16 17  1  0  0  0  0
 18 27  1  0  0  0  0
M  END
$$$$
