ZINC000000017077      none
 OpenBabel11202420153D

 38 41  0  0  1  0  0  0  0  0999 V2000
   26.8344   40.6370   66.4499 O   0  0  0  0  0  0  0  0  0  0  0  0
   27.6312   39.7474   66.6780 C   0  0  0  0  0  0  0  0  0  0  0  0
   27.2587   38.7497   67.4901 N   0  0  0  0  0  0  0  0  0  0  0  0
   28.0969   37.6819   67.8147 C   0  0  0  0  0  0  0  0  0  0  0  0
   27.6624   36.6719   68.6626 C   0  0  0  0  0  0  0  0  0  0  0  0
   28.5069   35.6238   68.9730 C   0  0  0  0  0  0  0  0  0  0  0  0
   29.7844   35.5749   68.4428 C   0  0  0  0  0  0  0  0  0  0  0  0
   30.8386   34.2539   68.8392 Cl  0  0  0  0  0  0  0  0  0  0  0  0
   30.2240   36.5834   67.6003 C   0  0  0  0  0  0  0  0  0  0  0  0
   29.3820   37.6252   67.2863 C   0  0  0  0  0  0  0  0  0  0  0  0
   29.8226   38.7415   66.3678 C   0  0  2  0  0  0  0  0  0  0  0  0
   30.2022   38.1432   65.0776 C   0  0  0  0  0  0  0  0  0  0  0  0
   30.5049   37.6660   64.0486 C   0  0  0  0  0  0  0  0  0  0  0  0
   30.8742   37.0839   62.7934 C   0  0  0  0  0  0  0  0  0  0  0  0
   30.3098   37.5575   61.6084 C   0  0  0  0  0  0  0  0  0  0  0  0
   30.6731   36.9953   60.4019 C   0  0  0  0  0  0  0  0  0  0  0  0
   31.5875   35.9577   60.3663 C   0  0  0  0  0  0  0  0  0  0  0  0
   32.1468   35.4801   61.5380 C   0  0  0  0  0  0  0  0  0  0  0  0
   31.7956   36.0369   62.7507 C   0  0  0  0  0  0  0  0  0  0  0  0
   31.0732   39.3838   66.9715 C   0  0  0  0  0  0  0  0  0  0  0  0
   31.9868   40.1721   66.0307 C   0  0  0  0  0  0  0  0  0  0  0  0
   32.4304   38.8074   66.5634 C   0  0  0  0  0  0  0  0  0  0  0  0
   28.8455   39.8110   66.1026 N   0  0  0  0  0  0  0  0  0  0  0  0
   26.3662   38.7699   67.8694 H   0  0  0  0  0  0  0  0  0  0  0  0
   26.6664   36.7059   69.0790 H   0  0  0  0  0  0  0  0  0  0  0  0
   28.1685   34.8386   69.6329 H   0  0  0  0  0  0  0  0  0  0  0  0
   31.2220   36.5496   67.1888 H   0  0  0  0  0  0  0  0  0  0  0  0
   29.5930   38.3648   61.6352 H   0  0  0  0  0  0  0  0  0  0  0  0
   30.2400   37.3636   59.4836 H   0  0  0  0  0  0  0  0  0  0  0  0
   31.8658   35.5185   59.4197 H   0  0  0  0  0  0  0  0  0  0  0  0
   32.8601   34.6699   61.5035 H   0  0  0  0  0  0  0  0  0  0  0  0
   32.2327   35.6629   63.6647 H   0  0  0  0  0  0  0  0  0  0  0  0
   30.9679   39.7484   67.9933 H   0  0  0  0  0  0  0  0  0  0  0  0
   31.6967   40.2331   64.9818 H   0  0  0  0  0  0  0  0  0  0  0  0
   32.4827   41.0551   66.4337 H   0  0  0  0  0  0  0  0  0  0  0  0
   33.2181   38.7930   67.3167 H   0  0  0  0  0  0  0  0  0  0  0  0
   32.4324   37.9703   65.8653 H   0  0  0  0  0  0  0  0  0  0  0  0
   29.0746   40.5521   65.5200 H   0  0  0  0  0  0  0  0  0  0  0  0
  1  2  2  0  0  0  0
  2 23  1  0  0  0  0
  2  3  1  0  0  0  0
  3  4  1  0  0  0  0
  3 24  1  0  0  0  0
  4 10  2  0  0  0  0
  4  5  1  0  0  0  0
  5  6  2  0  0  0  0
  5 25  1  0  0  0  0
  6  7  1  0  0  0  0
  6 26  1  0  0  0  0
  7  8  1  0  0  0  0
  7  9  2  0  0  0  0
  9 10  1  0  0  0  0
  9 27  1  0  0  0  0
 10 11  1  0  0  0  0
 11 12  1  6  0  0  0
 11 20  1  0  0  0  0
 11 23  1  0  0  0  0
 12 13  3  0  0  0  0
 13 14  1  0  0  0  0
 14 19  2  0  0  0  0
 14 15  1  0  0  0  0
 15 16  2  0  0  0  0
 15 28  1  0  0  0  0
 16 17  1  0  0  0  0
 16 29  1  0  0  0  0
 17 18  2  0  0  0  0
 17 30  1  0  0  0  0
 18 19  1  0  0  0  0
 18 31  1  0  0  0  0
 19 32  1  0  0  0  0
 20 22  1  0  0  0  0
 20 21  1  0  0  0  0
 20 33  1  0  0  0  0
 21 22  1  0  0  0  0
 21 34  1  0  0  0  0
 21 35  1  0  0  0  0
 22 36  1  0  0  0  0
 22 37  1  0  0  0  0
 23 38  1  0  0  0  0
M  END
$$$$
