ZINC000000037507      none
 OpenBabel11202420153D

 43 45  0  0  0  0  0  0  0  0999 V2000
   31.5390   33.3778   60.7994 C   0  0  0  0  0  0  0  0  0  0  0  0
   31.9942   34.3509   59.7426 C   0  0  0  0  0  0  0  0  0  0  0  0
   32.3965   34.0258   58.5003 C   0  0  0  0  0  0  0  0  0  0  0  0
   32.7372   35.2829   57.8272 C   0  0  0  0  0  0  0  0  0  0  0  0
   33.2246   35.4418   56.4449 C   0  0  0  0  0  0  0  0  0  0  0  0
   33.3911   34.3983   55.6917 N   0  0  0  0  0  0  0  0  0  0  0  0
   33.8542   34.5494   54.3781 N   0  0  0  0  0  0  0  0  0  0  0  0
   33.0991   34.1273   53.3445 C   0  0  0  0  0  0  0  0  0  0  0  0
   33.5445   34.2724   52.0808 N   0  0  0  0  0  0  0  0  0  0  0  0
   32.0156   33.6155   53.5523 O   0  0  0  0  0  0  0  0  0  0  0  0
   32.5136   36.2771   58.7360 C   0  0  0  0  0  0  0  0  0  0  0  0
   32.7231   37.7511   58.5019 C   0  0  0  0  0  0  0  0  0  0  0  0
   32.0686   35.7074   59.8903 N   0  0  0  0  0  0  0  0  0  0  0  0
   31.7340   36.4041   61.0470 C   0  0  0  0  0  0  0  0  0  0  0  0
   32.8188   36.7605   62.3098 S   0  0  0  0  0  0  0  0  0  0  0  0
   31.5876   37.5941   63.2440 C   0  0  0  0  0  0  0  0  0  0  0  0
   30.4127   37.5784   62.6011 C   0  0  0  0  0  0  0  0  0  0  0  0
   30.4896   36.8903   61.3269 C   0  0  0  0  0  0  0  0  0  0  0  0
   29.3694   36.7358   60.4482 C   0  0  0  0  0  0  0  0  0  0  0  0
   28.4808   36.6133   59.7512 N   0  0  0  0  0  0  0  0  0  0  0  0
   29.1462   38.2136   63.1526 C   0  0  0  0  0  0  0  0  0  0  0  0
   29.3289   38.4539   64.6530 C   0  0  0  0  0  0  0  0  0  0  0  0
   30.6499   39.1929   64.8872 C   0  0  0  0  0  0  0  0  0  0  0  0
   31.8134   38.2406   64.5971 C   0  0  0  0  0  0  0  0  0  0  0  0
   32.3877   33.0942   61.4219 H   0  0  0  0  0  0  0  0  0  0  0  0
   30.7742   33.8458   61.4190 H   0  0  0  0  0  0  0  0  0  0  0  0
   31.1261   32.4894   60.3217 H   0  0  0  0  0  0  0  0  0  0  0  0
   32.4528   33.0327   58.0795 H   0  0  0  0  0  0  0  0  0  0  0  0
   33.4429   36.4267   56.0592 H   0  0  0  0  0  0  0  0  0  0  0  0
   34.7184   34.9577   54.2123 H   0  0  0  0  0  0  0  0  0  0  0  0
   34.4087   34.6808   51.9152 H   0  0  0  0  0  0  0  0  0  0  0  0
   33.0011   33.9686   51.3371 H   0  0  0  0  0  0  0  0  0  0  0  0
   31.8408   38.1715   58.0195 H   0  0  0  0  0  0  0  0  0  0  0  0
   32.8881   38.2506   59.4566 H   0  0  0  0  0  0  0  0  0  0  0  0
   33.5922   37.8972   57.8606 H   0  0  0  0  0  0  0  0  0  0  0  0
   28.9649   39.1635   62.6496 H   0  0  0  0  0  0  0  0  0  0  0  0
   28.3012   37.5446   62.9901 H   0  0  0  0  0  0  0  0  0  0  0  0
   29.3493   37.4974   65.1753 H   0  0  0  0  0  0  0  0  0  0  0  0
   28.5026   39.0574   65.0285 H   0  0  0  0  0  0  0  0  0  0  0  0
   30.7020   39.5272   65.9234 H   0  0  0  0  0  0  0  0  0  0  0  0
   30.7090   40.0540   64.2216 H   0  0  0  0  0  0  0  0  0  0  0  0
   31.8563   37.4707   65.3674 H   0  0  0  0  0  0  0  0  0  0  0  0
   32.7488   38.7998   64.5835 H   0  0  0  0  0  0  0  0  0  0  0  0
  1  2  1  0  0  0  0
  1 25  1  0  0  0  0
  1 26  1  0  0  0  0
  1 27  1  0  0  0  0
  2 13  1  0  0  0  0
  2  3  2  0  0  0  0
  3  4  1  0  0  0  0
  3 28  1  0  0  0  0
  4  5  1  0  0  0  0
  4 11  2  0  0  0  0
  5  6  2  0  0  0  0
  5 29  1  0  0  0  0
  6  7  1  0  0  0  0
  7  8  1  0  0  0  0
  7 30  1  0  0  0  0
  8  9  1  0  0  0  0
  8 10  2  0  0  0  0
  9 31  1  0  0  0  0
  9 32  1  0  0  0  0
 11 12  1  0  0  0  0
 11 13  1  0  0  0  0
 12 33  1  0  0  0  0
 12 34  1  0  0  0  0
 12 35  1  0  0  0  0
 13 14  1  0  0  0  0
 14 18  2  0  0  0  0
 14 15  1  0  0  0  0
 15 16  1  0  0  0  0
 16 24  1  0  0  0  0
 16 17  2  0  0  0  0
 17 18  1  0  0  0  0
 17 21  1  0  0  0  0
 18 19  1  0  0  0  0
 19 20  3  0  0  0  0
 21 22  1  0  0  0  0
 21 36  1  0  0  0  0
 21 37  1  0  0  0  0
 22 23  1  0  0  0  0
 22 38  1  0  0  0  0
 22 39  1  0  0  0  0
 23 24  1  0  0  0  0
 23 40  1  0  0  0  0
 23 41  1  0  0  0  0
 24 42  1  0  0  0  0
 24 43  1  0  0  0  0
M  END
$$$$
