ZINC000000034215      none
 OpenBabel11202420153D

 14 14  0  0  0  0  0  0  0  0999 V2000
   32.2807   37.7532   61.0794 N   0  0  0  0  0  0  0  0  0  0  0  0
   32.6064   38.0036   60.0202 C   0  0  0  0  0  0  0  0  0  0  0  0
   33.0170   38.3193   58.6852 C   0  0  0  0  0  0  0  0  0  0  0  0
   33.3027   39.5751   58.1735 C   0  0  0  0  0  0  0  0  0  0  0  0
   33.2405   40.7666   58.8705 N   0  0  0  0  0  0  0  0  0  0  0  0
   33.6545   39.4334   56.8666 N   0  0  0  0  0  0  0  0  0  0  0  0
   33.9024   40.1642   56.2789 H   0  0  0  0  0  0  0  0  0  0  0  0
   33.6103   38.1233   56.4984 C   0  0  0  0  0  0  0  0  0  0  0  0
   34.0194   37.4533   54.7781 Br  0  0  0  0  0  0  0  0  0  0  0  0
   33.2244   37.3720   57.5682 C   0  0  0  0  0  0  0  0  0  0  0  0
   33.0592   35.9501   57.6050 C   0  0  0  0  0  0  0  0  0  0  0  0
   32.9280   34.8220   57.6343 N   0  0  0  0  0  0  0  0  0  0  0  0
   32.9777   40.7690   59.8042 H   0  0  0  0  0  0  0  0  0  0  0  0
   33.4597   41.6004   58.4261 H   0  0  0  0  0  0  0  0  0  0  0  0
  1  2  3  0  0  0  0
  2  3  1  0  0  0  0
  3 10  1  0  0  0  0
  3  4  2  0  0  0  0
  4  5  1  0  0  0  0
  4  6  1  0  0  0  0
  5 13  1  0  0  0  0
  5 14  1  0  0  0  0
  6  7  1  0  0  0  0
  6  8  1  0  0  0  0
  8  9  1  0  0  0  0
  8 10  2  0  0  0  0
 10 11  1  0  0  0  0
 11 12  3  0  0  0  0
M  END
$$$$
