ZINC000000036238      none
 OpenBabel11202420153D

 39 41  0  0  0  0  0  0  0  0999 V2000
   32.0784   36.6168   63.8443 O   0  0  0  0  0  0  0  0  0  0  0  0
   31.0376   37.1350   63.4988 C   0  0  0  0  0  0  0  0  0  0  0  0
   30.1903   36.4869   62.4343 C   0  0  0  0  0  0  0  0  0  0  0  0
   30.8357   35.2525   61.9807 N   0  0  0  0  0  0  0  0  0  0  0  0
   30.6613   34.0179   62.5001 C   0  0  0  0  0  0  0  0  0  0  0  0
   31.3987   33.1693   61.8356 N   0  0  0  0  0  0  0  0  0  0  0  0
   32.0748   33.8167   60.8796 C   0  0  0  0  0  0  0  0  0  0  0  0
   31.7385   35.1333   60.9484 C   0  0  0  0  0  0  0  0  0  0  0  0
   32.2439   36.2222   60.0843 C   0  0  0  0  0  0  0  0  0  0  0  0
   32.6237   35.9538   58.7688 C   0  0  0  0  0  0  0  0  0  0  0  0
   33.0898   36.9748   57.9665 C   0  0  0  0  0  0  0  0  0  0  0  0
   33.1914   38.2605   58.4671 C   0  0  0  0  0  0  0  0  0  0  0  0
   33.6981   39.3502   57.6027 N   0  0  0  0  0  0  0  0  0  0  0  0
   34.0245   39.1140   56.4533 O   0  0  0  0  0  0  0  0  0  0  0  0
   33.7886   40.4831   58.0409 O   0  0  0  0  0  0  0  0  0  0  0  0
   32.8208   38.5324   59.7722 C   0  0  0  0  0  0  0  0  0  0  0  0
   32.3482   37.5212   60.5831 C   0  0  0  0  0  0  0  0  0  0  0  0
   30.6391   38.2905   64.0666 N   0  0  0  0  0  0  0  0  0  0  0  0
   29.3801   38.9375   63.6640 C   0  0  0  0  0  0  0  0  0  0  0  0
   28.5724   39.2521   64.9284 C   0  0  0  0  0  0  0  0  0  0  0  0
   29.3953   39.9789   65.8440 O   0  0  0  0  0  0  0  0  0  0  0  0
   30.5409   39.2564   66.3016 C   0  0  0  0  0  0  0  0  0  0  0  0
   31.4496   38.9420   65.1076 C   0  0  0  0  0  0  0  0  0  0  0  0
   29.2077   36.2535   62.8443 H   0  0  0  0  0  0  0  0  0  0  0  0
   30.0797   37.1698   61.5920 H   0  0  0  0  0  0  0  0  0  0  0  0
   30.0148   33.7720   63.3294 H   0  0  0  0  0  0  0  0  0  0  0  0
   32.7649   33.3727   60.1774 H   0  0  0  0  0  0  0  0  0  0  0  0
   32.5492   34.9497   58.3782 H   0  0  0  0  0  0  0  0  0  0  0  0
   33.3800   36.7692   56.9467 H   0  0  0  0  0  0  0  0  0  0  0  0
   32.9021   39.5383   60.1570 H   0  0  0  0  0  0  0  0  0  0  0  0
   32.0594   37.7347   61.6017 H   0  0  0  0  0  0  0  0  0  0  0  0
   28.8107   38.2652   63.0223 H   0  0  0  0  0  0  0  0  0  0  0  0
   29.5974   39.8613   63.1278 H   0  0  0  0  0  0  0  0  0  0  0  0
   27.7025   39.8535   64.6645 H   0  0  0  0  0  0  0  0  0  0  0  0
   28.2447   38.3216   65.3919 H   0  0  0  0  0  0  0  0  0  0  0  0
   31.0873   39.8609   67.0255 H   0  0  0  0  0  0  0  0  0  0  0  0
   30.2212   38.3259   66.7706 H   0  0  0  0  0  0  0  0  0  0  0  0
   31.8750   39.8663   64.7168 H   0  0  0  0  0  0  0  0  0  0  0  0
   32.2509   38.2733   65.4221 H   0  0  0  0  0  0  0  0  0  0  0  0
  1  2  2  0  0  0  0
  2  3  1  0  0  0  0
  2 18  1  0  0  0  0
  3  4  1  0  0  0  0
  3 24  1  0  0  0  0
  3 25  1  0  0  0  0
  4  8  1  0  0  0  0
  4  5  1  0  0  0  0
  5  6  2  0  0  0  0
  5 26  1  0  0  0  0
  6  7  1  0  0  0  0
  7  8  2  0  0  0  0
  7 27  1  0  0  0  0
  8  9  1  0  0  0  0
  9 17  2  0  0  0  0
  9 10  1  0  0  0  0
 10 11  2  0  0  0  0
 10 28  1  0  0  0  0
 11 12  1  0  0  0  0
 11 29  1  0  0  0  0
 12 13  1  0  0  0  0
 12 16  2  0  0  0  0
 13 14  2  0  0  0  0
 13 15  2  0  0  0  0
 16 17  1  0  0  0  0
 16 30  1  0  0  0  0
 17 31  1  0  0  0  0
 18 23  1  0  0  0  0
 18 19  1  0  0  0  0
 19 20  1  0  0  0  0
 19 32  1  0  0  0  0
 19 33  1  0  0  0  0
 20 21  1  0  0  0  0
 20 34  1  0  0  0  0
 20 35  1  0  0  0  0
 21 22  1  0  0  0  0
 22 23  1  0  0  0  0
 22 36  1  0  0  0  0
 22 37  1  0  0  0  0
 23 38  1  0  0  0  0
 23 39  1  0  0  0  0
M  END
$$$$
