ZINC000000034300      none
 OpenBabel11202420153D

 34 36  0  0  0  0  0  0  0  0999 V2000
   34.1527   39.9579   56.3277 C   0  0  0  0  0  0  0  0  0  0  0  0
   33.6035   38.8316   57.0866 N   0  0  0  0  0  0  0  0  0  0  0  0
   33.4556   37.6152   56.4834 C   0  0  0  0  0  0  0  0  0  0  0  0
   33.9370   37.4501   54.7965 S   0  0  0  0  0  0  0  0  0  0  0  0
   32.7815   36.1627   54.2645 C   0  0  0  0  0  0  0  0  0  0  0  0
   33.2930   34.8153   54.7049 C   0  0  0  0  0  0  0  0  0  0  0  0
   32.4303   33.9042   55.2848 C   0  0  0  0  0  0  0  0  0  0  0  0
   32.8992   32.6684   55.6895 C   0  0  0  0  0  0  0  0  0  0  0  0
   34.2313   32.3421   55.5143 C   0  0  0  0  0  0  0  0  0  0  0  0
   35.0955   33.2511   54.9344 C   0  0  0  0  0  0  0  0  0  0  0  0
   34.6270   34.4896   54.5291 C   0  0  0  0  0  0  0  0  0  0  0  0
   35.4709   35.3794   53.9625 F   0  0  0  0  0  0  0  0  0  0  0  0
   32.9674   36.5667   57.0990 N   0  0  0  0  0  0  0  0  0  0  0  0
   32.5838   36.6205   58.3903 C   0  0  0  0  0  0  0  0  0  0  0  0
   32.0681   35.5002   59.0490 C   0  0  0  0  0  0  0  0  0  0  0  0
   31.6868   35.6009   60.3572 C   0  0  0  0  0  0  0  0  0  0  0  0
   31.8033   36.8018   61.0453 C   0  0  0  0  0  0  0  0  0  0  0  0
   32.3039   37.9150   60.4284 C   0  0  0  0  0  0  0  0  0  0  0  0
   32.7008   37.8408   59.0941 C   0  0  0  0  0  0  0  0  0  0  0  0
   33.2458   39.0037   58.3805 C   0  0  0  0  0  0  0  0  0  0  0  0
   33.3713   40.0814   58.9324 O   0  0  0  0  0  0  0  0  0  0  0  0
   33.3405   40.4997   55.8428 H   0  0  0  0  0  0  0  0  0  0  0  0
   34.6832   40.6279   57.0044 H   0  0  0  0  0  0  0  0  0  0  0  0
   34.8428   39.5843   55.5712 H   0  0  0  0  0  0  0  0  0  0  0  0
   32.6930   36.1803   53.1781 H   0  0  0  0  0  0  0  0  0  0  0  0
   31.8042   36.3441   54.7116 H   0  0  0  0  0  0  0  0  0  0  0  0
   31.3896   34.1580   55.4221 H   0  0  0  0  0  0  0  0  0  0  0  0
   32.2245   31.9572   56.1424 H   0  0  0  0  0  0  0  0  0  0  0  0
   34.5966   31.3762   55.8305 H   0  0  0  0  0  0  0  0  0  0  0  0
   36.1368   32.9975   54.8014 H   0  0  0  0  0  0  0  0  0  0  0  0
   31.9715   34.5600   58.5263 H   0  0  0  0  0  0  0  0  0  0  0  0
   31.2885   34.7341   60.8634 H   0  0  0  0  0  0  0  0  0  0  0  0
   31.4953   36.8570   62.0790 H   0  0  0  0  0  0  0  0  0  0  0  0
   32.3914   38.8447   60.9711 H   0  0  0  0  0  0  0  0  0  0  0  0
  1  2  1  0  0  0  0
  1 22  1  0  0  0  0
  1 23  1  0  0  0  0
  1 24  1  0  0  0  0
  2 20  1  0  0  0  0
  2  3  1  0  0  0  0
  3  4  1  0  0  0  0
  3 13  2  0  0  0  0
  4  5  1  0  0  0  0
  5  6  1  0  0  0  0
  5 25  1  0  0  0  0
  5 26  1  0  0  0  0
  6 11  2  0  0  0  0
  6  7  1  0  0  0  0
  7  8  2  0  0  0  0
  7 27  1  0  0  0  0
  8  9  1  0  0  0  0
  8 28  1  0  0  0  0
  9 10  2  0  0  0  0
  9 29  1  0  0  0  0
 10 11  1  0  0  0  0
 10 30  1  0  0  0  0
 11 12  1  0  0  0  0
 13 14  1  0  0  0  0
 14 19  2  0  0  0  0
 14 15  1  0  0  0  0
 15 16  2  0  0  0  0
 15 31  1  0  0  0  0
 16 17  1  0  0  0  0
 16 32  1  0  0  0  0
 17 18  2  0  0  0  0
 17 33  1  0  0  0  0
 18 19  1  0  0  0  0
 18 34  1  0  0  0  0
 19 20  1  0  0  0  0
 20 21  2  0  0  0  0
M  END
$$$$
