ZINC000000038140      none
 OpenBabel11202420153D

 35 38  0  0  0  0  0  0  0  0999 V2000
   34.3737   33.8948   55.3577 C   0  0  0  0  0  0  0  0  0  0  0  0
   33.8714   35.1169   56.0825 C   0  0  0  0  0  0  0  0  0  0  0  0
   34.2918   36.7638   55.6516 S   0  0  0  0  0  0  0  0  0  0  0  0
   33.3107   37.4258   56.9508 C   0  0  0  0  0  0  0  0  0  0  0  0
   33.0797   38.6891   57.3277 N   0  0  0  0  0  0  0  0  0  0  0  0
   32.3021   38.9581   58.3505 C   0  0  0  0  0  0  0  0  0  0  0  0
   31.7125   38.0084   59.0548 N   0  0  0  0  0  0  0  0  0  0  0  0
   31.8810   36.7301   58.7584 C   0  0  0  0  0  0  0  0  0  0  0  0
   31.2692   35.7682   59.4897 O   0  0  0  0  0  0  0  0  0  0  0  0
   30.4847   36.1583   60.5275 C   0  0  0  0  0  0  0  0  0  0  0  0
   29.1460   36.4077   60.3287 C   0  0  0  0  0  0  0  0  0  0  0  0
   28.3286   36.8016   61.3845 C   0  0  0  0  0  0  0  0  0  0  0  0
   28.8339   36.9631   62.6387 C   0  0  0  0  0  0  0  0  0  0  0  0
   30.1963   36.7244   62.8801 C   0  0  0  0  0  0  0  0  0  0  0  0
   30.7501   36.8817   64.1650 C   0  0  0  0  0  0  0  0  0  0  0  0
   32.0829   36.6324   64.3272 C   0  0  0  0  0  0  0  0  0  0  0  0
   32.8536   36.2344   63.2367 C   0  0  0  0  0  0  0  0  0  0  0  0
   32.3342   36.0887   62.0419 N   0  0  0  0  0  0  0  0  0  0  0  0
   31.0374   36.3166   61.8158 C   0  0  0  0  0  0  0  0  0  0  0  0
   32.7102   36.3832   57.6633 C   0  0  0  0  0  0  0  0  0  0  0  0
   33.0642   35.0831   57.1250 C   0  0  0  0  0  0  0  0  0  0  0  0
   32.5489   33.7940   57.7112 C   0  0  0  0  0  0  0  0  0  0  0  0
   33.6824   33.6386   54.5550 H   0  0  0  0  0  0  0  0  0  0  0  0
   35.3582   34.1008   54.9375 H   0  0  0  0  0  0  0  0  0  0  0  0
   34.4442   33.0612   56.0564 H   0  0  0  0  0  0  0  0  0  0  0  0
   32.1392   39.9897   58.6257 H   0  0  0  0  0  0  0  0  0  0  0  0
   28.7230   36.2911   59.3419 H   0  0  0  0  0  0  0  0  0  0  0  0
   27.2799   36.9872   61.2052 H   0  0  0  0  0  0  0  0  0  0  0  0
   28.1879   37.2740   63.4464 H   0  0  0  0  0  0  0  0  0  0  0  0
   30.1379   37.1910   64.9992 H   0  0  0  0  0  0  0  0  0  0  0  0
   32.5394   36.7438   65.2997 H   0  0  0  0  0  0  0  0  0  0  0  0
   33.9065   36.0406   63.3795 H   0  0  0  0  0  0  0  0  0  0  0  0
   33.2370   33.4442   58.4809 H   0  0  0  0  0  0  0  0  0  0  0  0
   31.5662   33.9624   58.1518 H   0  0  0  0  0  0  0  0  0  0  0  0
   32.4708   33.0429   56.9252 H   0  0  0  0  0  0  0  0  0  0  0  0
  1  2  1  0  0  0  0
  1 23  1  0  0  0  0
  1 24  1  0  0  0  0
  1 25  1  0  0  0  0
  2 21  2  0  0  0  0
  2  3  1  0  0  0  0
  3  4  1  0  0  0  0
  4 20  2  0  0  0  0
  4  5  1  0  0  0  0
  5  6  2  0  0  0  0
  6  7  1  0  0  0  0
  6 26  1  0  0  0  0
  7  8  2  0  0  0  0
  8  9  1  0  0  0  0
  8 20  1  0  0  0  0
  9 10  1  0  0  0  0
 10 19  2  0  0  0  0
 10 11  1  0  0  0  0
 11 12  2  0  0  0  0
 11 27  1  0  0  0  0
 12 13  1  0  0  0  0
 12 28  1  0  0  0  0
 13 14  2  0  0  0  0
 13 29  1  0  0  0  0
 14 19  1  0  0  0  0
 14 15  1  0  0  0  0
 15 16  2  0  0  0  0
 15 30  1  0  0  0  0
 16 17  1  0  0  0  0
 16 31  1  0  0  0  0
 17 18  2  0  0  0  0
 17 32  1  0  0  0  0
 18 19  1  0  0  0  0
 20 21  1  0  0  0  0
 21 22  1  0  0  0  0
 22 33  1  0  0  0  0
 22 34  1  0  0  0  0
 22 35  1  0  0  0  0
M  END
$$$$
