ZINC000000036653      none
 OpenBabel11202420153D

 45 47  0  0  0  0  0  0  0  0999 V2000
   28.9897   32.7285   66.8951 C   0  0  0  0  0  0  0  0  0  0  0  0
   29.8506   33.2838   65.8660 O   0  0  0  0  0  0  0  0  0  0  0  0
   29.2982   33.5033   64.6625 C   0  0  0  0  0  0  0  0  0  0  0  0
   28.1340   33.2402   64.4750 O   0  0  0  0  0  0  0  0  0  0  0  0
   30.1304   34.0779   63.5451 C   0  0  0  0  0  0  0  0  0  0  0  0
   29.5212   35.4040   63.0854 C   0  0  0  0  0  0  0  0  0  0  0  0
   30.3532   35.9785   61.9681 C   0  0  0  0  0  0  0  0  0  0  0  0
   30.8350   35.2675   60.8939 N   0  0  0  0  0  0  0  0  0  0  0  0
   30.6908   34.3203   60.7427 H   0  0  0  0  0  0  0  0  0  0  0  0
   31.5530   36.1004   60.0658 C   0  0  0  0  0  0  0  0  0  0  0  0
   32.2379   35.9015   58.8706 C   0  0  0  0  0  0  0  0  0  0  0  0
   32.2807   34.5321   58.2429 C   0  0  0  0  0  0  0  0  0  0  0  0
   32.8766   36.9601   58.2637 C   0  0  0  0  0  0  0  0  0  0  0  0
   32.8444   38.2264   58.8321 C   0  0  0  0  0  0  0  0  0  0  0  0
   32.1781   38.4439   60.0049 C   0  0  0  0  0  0  0  0  0  0  0  0
   31.5195   37.3864   60.6346 C   0  0  0  0  0  0  0  0  0  0  0  0
   30.7364   37.2661   61.8702 C   0  0  0  0  0  0  0  0  0  0  0  0
   30.3626   38.5608   63.0053 S   0  0  0  0  0  0  0  0  0  0  0  0
   31.0779   37.9875   64.5101 C   0  0  0  0  0  0  0  0  0  0  0  0
   32.4430   37.7354   64.5810 C   0  0  0  0  0  0  0  0  0  0  0  0
   33.0009   37.2920   65.7637 C   0  0  0  0  0  0  0  0  0  0  0  0
   32.2011   37.0870   66.8733 C   0  0  0  0  0  0  0  0  0  0  0  0
   32.8129   36.5966   68.1605 C   0  0  0  0  0  0  0  0  0  0  0  0
   30.8414   37.3313   66.8050 C   0  0  0  0  0  0  0  0  0  0  0  0
   30.2774   37.7806   65.6276 C   0  0  0  0  0  0  0  0  0  0  0  0
   28.1549   33.4060   67.0750 H   0  0  0  0  0  0  0  0  0  0  0  0
   28.6086   31.7615   66.5670 H   0  0  0  0  0  0  0  0  0  0  0  0
   29.5592   32.6012   67.8156 H   0  0  0  0  0  0  0  0  0  0  0  0
   30.1499   33.3780   62.7096 H   0  0  0  0  0  0  0  0  0  0  0  0
   31.1468   34.2485   63.8998 H   0  0  0  0  0  0  0  0  0  0  0  0
   29.5017   36.1038   63.9209 H   0  0  0  0  0  0  0  0  0  0  0  0
   28.5047   35.2332   62.7307 H   0  0  0  0  0  0  0  0  0  0  0  0
   31.4348   34.4164   57.5652 H   0  0  0  0  0  0  0  0  0  0  0  0
   33.2107   34.4165   57.6861 H   0  0  0  0  0  0  0  0  0  0  0  0
   32.2277   33.7728   59.0231 H   0  0  0  0  0  0  0  0  0  0  0  0
   33.4075   36.8036   57.3362 H   0  0  0  0  0  0  0  0  0  0  0  0
   33.3504   39.0460   58.3435 H   0  0  0  0  0  0  0  0  0  0  0  0
   32.1570   39.4317   60.4409 H   0  0  0  0  0  0  0  0  0  0  0  0
   33.0672   37.8903   63.7134 H   0  0  0  0  0  0  0  0  0  0  0  0
   34.0622   37.1002   65.8208 H   0  0  0  0  0  0  0  0  0  0  0  0
   32.8005   35.5068   68.1764 H   0  0  0  0  0  0  0  0  0  0  0  0
   33.8417   36.9493   68.2312 H   0  0  0  0  0  0  0  0  0  0  0  0
   32.2387   36.9789   69.0044 H   0  0  0  0  0  0  0  0  0  0  0  0
   30.2201   37.1700   67.6735 H   0  0  0  0  0  0  0  0  0  0  0  0
   29.2157   37.9715   65.5750 H   0  0  0  0  0  0  0  0  0  0  0  0
  1  2  1  0  0  0  0
  1 26  1  0  0  0  0
  1 27  1  0  0  0  0
  1 28  1  0  0  0  0
  2  3  1  0  0  0  0
  3  4  2  0  0  0  0
  3  5  1  0  0  0  0
  5  6  1  0  0  0  0
  5 29  1  0  0  0  0
  5 30  1  0  0  0  0
  6  7  1  0  0  0  0
  6 31  1  0  0  0  0
  6 32  1  0  0  0  0
  7 17  2  0  0  0  0
  7  8  1  0  0  0  0
  8  9  1  0  0  0  0
  8 10  1  0  0  0  0
 10 16  2  0  0  0  0
 10 11  1  0  0  0  0
 11 12  1  0  0  0  0
 11 13  2  0  0  0  0
 12 33  1  0  0  0  0
 12 34  1  0  0  0  0
 12 35  1  0  0  0  0
 13 14  1  0  0  0  0
 13 36  1  0  0  0  0
 14 15  2  0  0  0  0
 14 37  1  0  0  0  0
 15 16  1  0  0  0  0
 15 38  1  0  0  0  0
 16 17  1  0  0  0  0
 17 18  1  0  0  0  0
 18 19  1  0  0  0  0
 19 25  2  0  0  0  0
 19 20  1  0  0  0  0
 20 21  2  0  0  0  0
 20 39  1  0  0  0  0
 21 22  1  0  0  0  0
 21 40  1  0  0  0  0
 22 23  1  0  0  0  0
 22 24  2  0  0  0  0
 23 41  1  0  0  0  0
 23 42  1  0  0  0  0
 23 43  1  0  0  0  0
 24 25  1  0  0  0  0
 24 44  1  0  0  0  0
 25 45  1  0  0  0  0
M  END
$$$$
