ZINC000000008885      none
 OpenBabel11202420153D

 34 36  0  0  0  0  0  0  0  0999 V2000
   33.2314   35.2904   53.7070 C   0  0  0  0  0  0  0  0  0  0  0  0
   34.0589   36.4188   54.3258 C   0  0  0  0  0  0  0  0  0  0  0  0
   35.5350   36.0174   54.3525 C   0  0  0  0  0  0  0  0  0  0  0  0
   33.8971   37.6305   53.5386 O   0  0  0  0  0  0  0  0  0  0  0  0
   34.3025   38.7868   54.0939 C   0  0  0  0  0  0  0  0  0  0  0  0
   34.7798   39.6557   53.3913 O   0  0  0  0  0  0  0  0  0  0  0  0
   34.1858   38.9925   55.4214 N   0  0  0  0  0  0  0  0  0  0  0  0
   33.6628   37.9812   56.2345 C   0  0  0  0  0  0  0  0  0  0  0  0
   33.2312   38.2557   57.5243 C   0  0  0  0  0  0  0  0  0  0  0  0
   32.7175   37.2431   58.3075 C   0  0  0  0  0  0  0  0  0  0  0  0
   32.6316   35.9459   57.8036 C   0  0  0  0  0  0  0  0  0  0  0  0
   32.0788   34.8572   58.6462 C   0  0  0  0  0  0  0  0  0  0  0  0
   32.2207   34.9049   60.0320 C   0  0  0  0  0  0  0  0  0  0  0  0
   31.7054   33.8900   60.8122 C   0  0  0  0  0  0  0  0  0  0  0  0
   31.0481   32.8256   60.2221 C   0  0  0  0  0  0  0  0  0  0  0  0
   30.8988   32.7747   58.8460 C   0  0  0  0  0  0  0  0  0  0  0  0
   30.2508   31.7355   58.2755 F   0  0  0  0  0  0  0  0  0  0  0  0
   31.4165   33.7837   58.0551 C   0  0  0  0  0  0  0  0  0  0  0  0
   33.0712   35.6715   56.5086 C   0  0  0  0  0  0  0  0  0  0  0  0
   33.5787   36.6864   55.7303 C   0  0  0  0  0  0  0  0  0  0  0  0
   33.5711   35.1079   52.6874 H   0  0  0  0  0  0  0  0  0  0  0  0
   33.3542   34.3832   54.2986 H   0  0  0  0  0  0  0  0  0  0  0  0
   32.1797   35.5762   53.6939 H   0  0  0  0  0  0  0  0  0  0  0  0
   36.1219   36.8203   54.7986 H   0  0  0  0  0  0  0  0  0  0  0  0
   35.6540   35.1090   54.9431 H   0  0  0  0  0  0  0  0  0  0  0  0
   35.8810   35.8369   53.3347 H   0  0  0  0  0  0  0  0  0  0  0  0
   34.4631   39.8367   55.8105 H   0  0  0  0  0  0  0  0  0  0  0  0
   33.2970   39.2606   57.9143 H   0  0  0  0  0  0  0  0  0  0  0  0
   32.3814   37.4552   59.3117 H   0  0  0  0  0  0  0  0  0  0  0  0
   32.7338   35.7352   60.4946 H   0  0  0  0  0  0  0  0  0  0  0  0
   31.8154   33.9269   61.8859 H   0  0  0  0  0  0  0  0  0  0  0  0
   30.6461   32.0338   60.8368 H   0  0  0  0  0  0  0  0  0  0  0  0
   31.3038   33.7420   56.9817 H   0  0  0  0  0  0  0  0  0  0  0  0
   33.0097   34.6670   56.1167 H   0  0  0  0  0  0  0  0  0  0  0  0
  1  2  1  0  0  0  0
  1 21  1  0  0  0  0
  1 22  1  0  0  0  0
  1 23  1  0  0  0  0
  2 20  1  0  0  0  0
  2  3  1  0  0  0  0
  2  4  1  0  0  0  0
  3 24  1  0  0  0  0
  3 25  1  0  0  0  0
  3 26  1  0  0  0  0
  4  5  1  0  0  0  0
  5  6  2  0  0  0  0
  5  7  1  0  0  0  0
  7  8  1  0  0  0  0
  7 27  1  0  0  0  0
  8 20  2  0  0  0  0
  8  9  1  0  0  0  0
  9 10  2  0  0  0  0
  9 28  1  0  0  0  0
 10 11  1  0  0  0  0
 10 29  1  0  0  0  0
 11 12  1  0  0  0  0
 11 19  2  0  0  0  0
 12 18  2  0  0  0  0
 12 13  1  0  0  0  0
 13 14  2  0  0  0  0
 13 30  1  0  0  0  0
 14 15  1  0  0  0  0
 14 31  1  0  0  0  0
 15 16  2  0  0  0  0
 15 32  1  0  0  0  0
 16 17  1  0  0  0  0
 16 18  1  0  0  0  0
 18 33  1  0  0  0  0
 19 20  1  0  0  0  0
 19 34  1  0  0  0  0
M  END
$$$$
