ZINC000000040885      none
 OpenBabel11202420153D

 30 31  0  0  0  0  0  0  0  0999 V2000
   35.0662   37.4783   53.9900 C   0  0  0  0  0  0  0  0  0  0  0  0
   34.4851   36.5428   54.9362 O   0  0  0  0  0  0  0  0  0  0  0  0
   33.6839   37.0561   55.8898 C   0  0  0  0  0  0  0  0  0  0  0  0
   33.4766   38.2522   55.9299 O   0  0  0  0  0  0  0  0  0  0  0  0
   33.0575   36.1640   56.8871 C   0  0  0  0  0  0  0  0  0  0  0  0
   32.7448   34.8454   56.5495 C   0  0  0  0  0  0  0  0  0  0  0  0
   32.1594   34.0154   57.4832 C   0  0  0  0  0  0  0  0  0  0  0  0
   31.8860   34.4829   58.7556 C   0  0  0  0  0  0  0  0  0  0  0  0
   31.2635   33.5842   59.7534 N   0  0  0  0  0  0  0  0  0  0  0  0
   30.9929   32.4352   59.4531 O   0  0  0  0  0  0  0  0  0  0  0  0
   31.0215   33.9936   60.8748 O   0  0  0  0  0  0  0  0  0  0  0  0
   32.1880   35.7938   59.0989 C   0  0  0  0  0  0  0  0  0  0  0  0
   31.9119   36.2493   60.3493 O   0  0  0  0  0  0  0  0  0  0  0  0
   30.7026   36.8058   60.5681 C   0  0  0  0  0  0  0  0  0  0  0  0
   29.8977   36.8881   59.6598 O   0  0  0  0  0  0  0  0  0  0  0  0
   30.3567   37.3053   61.8999 C   0  0  0  0  0  0  0  0  0  0  0  0
   29.7630   36.5747   62.8918 C   0  0  0  0  0  0  0  0  0  0  0  0
   29.5521   37.2935   64.0439 C   0  0  0  0  0  0  0  0  0  0  0  0
   29.9577   38.5683   64.0003 C   0  0  0  0  0  0  0  0  0  0  0  0
   30.6451   38.9388   62.4833 S   0  0  0  0  0  0  0  0  0  0  0  0
   32.7757   36.6359   58.1696 C   0  0  0  0  0  0  0  0  0  0  0  0
   35.6771   38.2048   54.5258 H   0  0  0  0  0  0  0  0  0  0  0  0
   35.6881   36.9356   53.2778 H   0  0  0  0  0  0  0  0  0  0  0  0
   34.2701   37.9966   53.4557 H   0  0  0  0  0  0  0  0  0  0  0  0
   32.9613   34.4756   55.5581 H   0  0  0  0  0  0  0  0  0  0  0  0
   31.9183   32.9958   57.2209 H   0  0  0  0  0  0  0  0  0  0  0  0
   29.4871   35.5365   62.7807 H   0  0  0  0  0  0  0  0  0  0  0  0
   29.0929   36.8611   64.9206 H   0  0  0  0  0  0  0  0  0  0  0  0
   29.8663   39.2679   64.8180 H   0  0  0  0  0  0  0  0  0  0  0  0
   33.0149   37.6546   58.4367 H   0  0  0  0  0  0  0  0  0  0  0  0
  1  2  1  0  0  0  0
  1 22  1  0  0  0  0
  1 23  1  0  0  0  0
  1 24  1  0  0  0  0
  2  3  1  0  0  0  0
  3  4  2  0  0  0  0
  3  5  1  0  0  0  0
  5 21  2  0  0  0  0
  5  6  1  0  0  0  0
  6  7  2  0  0  0  0
  6 25  1  0  0  0  0
  7  8  1  0  0  0  0
  7 26  1  0  0  0  0
  8  9  1  0  0  0  0
  8 12  2  0  0  0  0
  9 10  2  0  0  0  0
  9 11  2  0  0  0  0
 12 13  1  0  0  0  0
 12 21  1  0  0  0  0
 13 14  1  0  0  0  0
 14 15  2  0  0  0  0
 14 16  1  0  0  0  0
 16 20  1  0  0  0  0
 16 17  2  0  0  0  0
 17 18  1  0  0  0  0
 17 27  1  0  0  0  0
 18 19  2  0  0  0  0
 18 28  1  0  0  0  0
 19 20  1  0  0  0  0
 19 29  1  0  0  0  0
 21 30  1  0  0  0  0
M  END
$$$$
