ZINC000000031319      none
 OpenBabel11202420163D

 26 27  0  0  0  0  0  0  0  0999 V2000
   31.2885   35.1057   61.1794 N   0  0  0  0  0  0  0  0  0  0  0  0
   31.6323   36.7205   61.3123 S   0  0  0  0  0  0  0  0  0  0  0  0
   32.6903   36.8292   62.2542 O   0  0  0  0  0  0  0  0  0  0  0  0
   30.3852   37.3847   61.4636 O   0  0  0  0  0  0  0  0  0  0  0  0
   32.2894   37.2430   59.7632 C   0  0  0  0  0  0  0  0  0  0  0  0
   32.6684   38.5615   59.5854 C   0  0  0  0  0  0  0  0  0  0  0  0
   33.1840   38.9773   58.3754 C   0  0  0  0  0  0  0  0  0  0  0  0
   33.3230   38.0636   57.3283 C   0  0  0  0  0  0  0  0  0  0  0  0
   33.8737   38.5014   56.0302 C   0  0  0  0  0  0  0  0  0  0  0  0
   34.2871   39.7786   55.7220 C   0  0  0  0  0  0  0  0  0  0  0  0
   34.7348   39.7549   54.4002 C   0  0  0  0  0  0  0  0  0  0  0  0
   34.5773   38.4574   53.9479 C   0  0  0  0  0  0  0  0  0  0  0  0
   34.9057   37.9848   52.6597 C   0  0  0  0  0  0  0  0  0  0  0  0
   34.7220   36.8181   52.3757 O   0  0  0  0  0  0  0  0  0  0  0  0
   34.0553   37.7210   54.9522 O   0  0  0  0  0  0  0  0  0  0  0  0
   32.9333   36.7352   57.5129 C   0  0  0  0  0  0  0  0  0  0  0  0
   32.4241   36.3320   58.7298 C   0  0  0  0  0  0  0  0  0  0  0  0
   31.3380   34.5335   61.9611 H   0  0  0  0  0  0  0  0  0  0  0  0
   31.0379   34.7322   60.3201 H   0  0  0  0  0  0  0  0  0  0  0  0
   32.5600   39.2671   60.3959 H   0  0  0  0  0  0  0  0  0  0  0  0
   33.4799   40.0069   58.2383 H   0  0  0  0  0  0  0  0  0  0  0  0
   34.2680   40.6360   56.3785 H   0  0  0  0  0  0  0  0  0  0  0  0
   35.1280   40.5894   53.8385 H   0  0  0  0  0  0  0  0  0  0  0  0
   35.3205   38.6603   51.9261 H   0  0  0  0  0  0  0  0  0  0  0  0
   33.0342   36.0244   56.7061 H   0  0  0  0  0  0  0  0  0  0  0  0
   32.1260   35.3041   58.8753 H   0  0  0  0  0  0  0  0  0  0  0  0
  1  2  1  0  0  0  0
  1 18  1  0  0  0  0
  1 19  1  0  0  0  0
  2  3  2  0  0  0  0
  2  4  2  0  0  0  0
  2  5  1  0  0  0  0
  5 17  2  0  0  0  0
  5  6  1  0  0  0  0
  6  7  2  0  0  0  0
  6 20  1  0  0  0  0
  7  8  1  0  0  0  0
  7 21  1  0  0  0  0
  8  9  1  0  0  0  0
  8 16  2  0  0  0  0
  9 15  1  0  0  0  0
  9 10  2  0  0  0  0
 10 11  1  0  0  0  0
 10 22  1  0  0  0  0
 11 12  2  0  0  0  0
 11 23  1  0  0  0  0
 12 13  1  0  0  0  0
 12 15  1  0  0  0  0
 13 14  2  0  0  0  0
 13 24  1  0  0  0  0
 16 17  1  0  0  0  0
 16 25  1  0  0  0  0
 17 26  1  0  0  0  0
M  END
$$$$
