ZINC000000010541      none
 OpenBabel11202420153D

 32 34  0  0  1  0  0  0  0  0999 V2000
   32.5643   38.6488   60.0982 O   0  0  0  0  0  0  0  0  0  0  0  0
   32.3344   37.4702   59.9011 C   0  0  0  0  0  0  0  0  0  0  0  0
   31.8341   36.7062   60.8924 N   0  0  0  0  0  0  0  0  0  0  0  0
   31.5672   37.2946   62.2071 C   0  0  2  0  0  0  0  0  0  0  0  0
   32.2643   38.1120   62.3918 H   0  0  0  0  0  0  0  0  0  0  0  0
   31.7314   36.2254   63.2908 C   0  0  0  0  0  0  0  0  0  0  0  0
   30.4614   36.0640   64.0121 N   0  0  1  0  0  0  0  0  0  0  0  0
   30.0738   37.3116   64.6899 C   0  0  0  0  0  0  0  0  0  0  0  0
   29.8642   38.4098   63.6434 C   0  0  0  0  0  0  0  0  0  0  0  0
   30.1290   37.8264   62.2498 C   0  0  2  0  0  0  0  0  0  0  0  0
   29.1668   36.6542   62.0193 C   0  0  0  0  0  0  0  0  0  0  0  0
   29.3984   35.6029   63.1084 C   0  0  0  0  0  0  0  0  0  0  0  0
   32.6018   36.8810   58.5850 C   0  0  0  0  0  0  0  0  0  0  0  0
   33.1109   37.5367   57.5008 C   0  0  0  0  0  0  0  0  0  0  0  0
   33.2010   36.5940   56.4648 C   0  0  0  0  0  0  0  0  0  0  0  0
   32.7488   35.4191   56.9557 C   0  0  0  0  0  0  0  0  0  0  0  0
   32.3934   35.5949   58.2350 O   0  0  0  0  0  0  0  0  0  0  0  0
   31.6509   35.7666   60.7352 H   0  0  0  0  0  0  0  0  0  0  0  0
   32.5099   36.5321   63.9893 H   0  0  0  0  0  0  0  0  0  0  0  0
   32.0099   35.2785   62.8282 H   0  0  0  0  0  0  0  0  0  0  0  0
   30.8629   37.6120   65.3792 H   0  0  0  0  0  0  0  0  0  0  0  0
   29.1477   37.1547   65.2430 H   0  0  0  0  0  0  0  0  0  0  0  0
   30.5550   39.2315   63.8327 H   0  0  0  0  0  0  0  0  0  0  0  0
   28.8386   38.7751   63.6976 H   0  0  0  0  0  0  0  0  0  0  0  0
   29.9771   38.5913   61.4882 H   0  0  0  0  0  0  0  0  0  0  0  0
   28.1382   37.0109   62.0688 H   0  0  0  0  0  0  0  0  0  0  0  0
   29.3544   36.2150   61.0395 H   0  0  0  0  0  0  0  0  0  0  0  0
   28.4782   35.4567   63.6741 H   0  0  0  0  0  0  0  0  0  0  0  0
   29.6959   34.6611   62.6474 H   0  0  0  0  0  0  0  0  0  0  0  0
   33.3896   38.5789   57.4502 H   0  0  0  0  0  0  0  0  0  0  0  0
   33.5637   36.7740   55.4635 H   0  0  0  0  0  0  0  0  0  0  0  0
   32.6881   34.4903   56.4080 H   0  0  0  0  0  0  0  0  0  0  0  0
  1  2  2  0  0  0  0
  2  3  1  0  0  0  0
  2 13  1  0  0  0  0
  3  4  1  0  0  0  0
  3 18  1  0  0  0  0
  4  5  1  1  0  0  0
  4 10  1  0  0  0  0
  4  6  1  0  0  0  0
  6 19  1  0  0  0  0
  6 20  1  0  0  0  0
  7  6  1  6  0  0  0
  7 12  1  0  0  0  0
  7  8  1  0  0  0  0
  8  9  1  0  0  0  0
  8 21  1  0  0  0  0
  8 22  1  0  0  0  0
  9 10  1  0  0  0  0
  9 23  1  0  0  0  0
  9 24  1  0  0  0  0
 10 11  1  0  0  0  0
 10 25  1  6  0  0  0
 11 12  1  0  0  0  0
 11 26  1  0  0  0  0
 11 27  1  0  0  0  0
 12 28  1  0  0  0  0
 12 29  1  0  0  0  0
 13 17  1  0  0  0  0
 13 14  2  0  0  0  0
 14 15  1  0  0  0  0
 14 30  1  0  0  0  0
 15 16  2  0  0  0  0
 15 31  1  0  0  0  0
 16 17  1  0  0  0  0
 16 32  1  0  0  0  0
M  END
$$$$
