ZINC000000024367      none
 OpenBabel11202420153D

 35 37  0  0  0  0  0  0  0  0999 V2000
   29.9108   39.2911   65.1519 C   0  0  0  0  0  0  0  0  0  0  0  0
   30.6424   37.9924   64.8069 C   0  0  0  0  0  0  0  0  0  0  0  0
   29.7946   36.7961   65.2438 C   0  0  0  0  0  0  0  0  0  0  0  0
   31.9901   37.9563   65.5328 C   0  0  0  0  0  0  0  0  0  0  0  0
   32.7412   36.6827   65.1352 C   0  0  0  0  0  0  0  0  0  0  0  0
   32.9180   36.6540   63.6154 C   0  0  0  0  0  0  0  0  0  0  0  0
   31.6008   36.6894   62.9672 N   0  0  0  0  0  0  0  0  0  0  0  0
   31.7178   36.5335   61.5978 C   0  0  0  0  0  0  0  0  0  0  0  0
   31.8655   37.5887   60.8018 N   0  0  0  0  0  0  0  0  0  0  0  0
   31.9782   37.4443   59.4937 C   0  0  0  0  0  0  0  0  0  0  0  0
   31.9523   36.2689   58.9033 N   0  0  0  0  0  0  0  0  0  0  0  0
   31.8077   35.1529   59.6157 C   0  0  0  0  0  0  0  0  0  0  0  0
   31.7441   33.8224   59.3046 N   0  0  0  0  0  0  0  0  0  0  0  0
   31.8030   33.4575   58.4077 H   0  0  0  0  0  0  0  0  0  0  0  0
   31.5854   33.0803   60.4464 C   0  0  0  0  0  0  0  0  0  0  0  0
   31.5419   33.8928   61.5149 C   0  0  0  0  0  0  0  0  0  0  0  0
   31.6840   35.2584   61.0136 C   0  0  0  0  0  0  0  0  0  0  0  0
   30.8801   37.9258   63.2965 C   0  0  0  0  0  0  0  0  0  0  0  0
   28.9531   39.3178   64.6322 H   0  0  0  0  0  0  0  0  0  0  0  0
   29.7418   39.3380   66.2278 H   0  0  0  0  0  0  0  0  0  0  0  0
   30.5164   40.1427   64.8419 H   0  0  0  0  0  0  0  0  0  0  0  0
   30.3175   35.8715   64.9990 H   0  0  0  0  0  0  0  0  0  0  0  0
   29.6257   36.8440   66.3195 H   0  0  0  0  0  0  0  0  0  0  0  0
   28.8368   36.8202   64.7241 H   0  0  0  0  0  0  0  0  0  0  0  0
   32.5789   38.8294   65.2513 H   0  0  0  0  0  0  0  0  0  0  0  0
   31.8238   37.9610   66.6100 H   0  0  0  0  0  0  0  0  0  0  0  0
   33.7195   36.6721   65.6156 H   0  0  0  0  0  0  0  0  0  0  0  0
   32.1705   35.8098   65.4523 H   0  0  0  0  0  0  0  0  0  0  0  0
   33.4400   35.7413   63.3276 H   0  0  0  0  0  0  0  0  0  0  0  0
   33.5008   37.5199   63.3012 H   0  0  0  0  0  0  0  0  0  0  0  0
   32.0961   38.3276   58.8836 H   0  0  0  0  0  0  0  0  0  0  0  0
   31.5077   32.0036   60.4814 H   0  0  0  0  0  0  0  0  0  0  0  0
   31.4245   33.5945   62.5462 H   0  0  0  0  0  0  0  0  0  0  0  0
   31.4724   38.7857   62.9838 H   0  0  0  0  0  0  0  0  0  0  0  0
   29.9217   37.9368   62.7773 H   0  0  0  0  0  0  0  0  0  0  0  0
  1  2  1  0  0  0  0
  1 19  1  0  0  0  0
  1 20  1  0  0  0  0
  1 21  1  0  0  0  0
  2 18  1  0  0  0  0
  2  3  1  0  0  0  0
  2  4  1  0  0  0  0
  3 22  1  0  0  0  0
  3 23  1  0  0  0  0
  3 24  1  0  0  0  0
  4  5  1  0  0  0  0
  4 25  1  0  0  0  0
  4 26  1  0  0  0  0
  5  6  1  0  0  0  0
  5 27  1  0  0  0  0
  5 28  1  0  0  0  0
  6  7  1  0  0  0  0
  6 29  1  0  0  0  0
  6 30  1  0  0  0  0
  7  8  1  0  0  0  0
  7 18  1  0  0  0  0
  8 17  2  0  0  0  0
  8  9  1  0  0  0  0
  9 10  2  0  0  0  0
 10 11  1  0  0  0  0
 10 31  1  0  0  0  0
 11 12  2  0  0  0  0
 12 17  1  0  0  0  0
 12 13  1  0  0  0  0
 13 14  1  0  0  0  0
 13 15  1  0  0  0  0
 15 16  2  0  0  0  0
 15 32  1  0  0  0  0
 16 17  1  0  0  0  0
 16 33  1  0  0  0  0
 18 34  1  0  0  0  0
 18 35  1  0  0  0  0
M  END
$$$$
