ZINC000000029172      none
 OpenBabel11202420163D

 29 30  0  0  0  0  0  0  0  0999 V2000
   30.1866   37.8909   62.3257 C   0  0  0  0  0  0  0  0  0  0  0  0
   31.6498   37.4449   62.2933 C   0  0  0  0  0  0  0  0  0  0  0  0
   31.9852   36.9218   60.9203 C   0  0  0  0  0  0  0  0  0  0  0  0
   32.4669   37.7839   59.9524 C   0  0  0  0  0  0  0  0  0  0  0  0
   32.7806   37.3067   58.6949 C   0  0  0  0  0  0  0  0  0  0  0  0
   32.6009   35.9616   58.3995 C   0  0  0  0  0  0  0  0  0  0  0  0
   32.9117   35.4764   57.1253 N   0  0  0  0  0  0  0  0  0  0  0  0
   33.3256   34.2030   56.9715 C   0  0  0  0  0  0  0  0  0  0  0  0
   33.4290   33.4754   57.9417 O   0  0  0  0  0  0  0  0  0  0  0  0
   33.6510   33.6945   55.6363 C   0  0  0  0  0  0  0  0  0  0  0  0
   34.0736   32.4261   55.3521 C   0  0  0  0  0  0  0  0  0  0  0  0
   34.3079   32.2184   54.0134 C   0  0  0  0  0  0  0  0  0  0  0  0
   34.0857   33.2781   53.2271 C   0  0  0  0  0  0  0  0  0  0  0  0
   33.5534   34.6161   54.1420 S   0  0  0  0  0  0  0  0  0  0  0  0
   32.1114   35.0994   59.3723 C   0  0  0  0  0  0  0  0  0  0  0  0
   31.8051   35.5820   60.6295 C   0  0  0  0  0  0  0  0  0  0  0  0
   29.9440   38.2692   63.3188 H   0  0  0  0  0  0  0  0  0  0  0  0
   30.0305   38.6785   61.5887 H   0  0  0  0  0  0  0  0  0  0  0  0
   29.5429   37.0426   62.0928 H   0  0  0  0  0  0  0  0  0  0  0  0
   31.8058   36.6571   63.0304 H   0  0  0  0  0  0  0  0  0  0  0  0
   32.2934   38.2930   62.5263 H   0  0  0  0  0  0  0  0  0  0  0  0
   32.6022   38.8307   60.1813 H   0  0  0  0  0  0  0  0  0  0  0  0
   33.1610   37.9797   57.9407 H   0  0  0  0  0  0  0  0  0  0  0  0
   32.8292   36.0563   56.3522 H   0  0  0  0  0  0  0  0  0  0  0  0
   34.2101   31.6633   56.1042 H   0  0  0  0  0  0  0  0  0  0  0  0
   34.6462   31.2692   53.6250 H   0  0  0  0  0  0  0  0  0  0  0  0
   34.2203   33.2840   52.1555 H   0  0  0  0  0  0  0  0  0  0  0  0
   31.9702   34.0530   59.1456 H   0  0  0  0  0  0  0  0  0  0  0  0
   31.4241   34.9122   61.3863 H   0  0  0  0  0  0  0  0  0  0  0  0
  1  2  1  0  0  0  0
  1 17  1  0  0  0  0
  1 18  1  0  0  0  0
  1 19  1  0  0  0  0
  2  3  1  0  0  0  0
  2 20  1  0  0  0  0
  2 21  1  0  0  0  0
  3 16  2  0  0  0  0
  3  4  1  0  0  0  0
  4  5  2  0  0  0  0
  4 22  1  0  0  0  0
  5  6  1  0  0  0  0
  5 23  1  0  0  0  0
  6  7  1  0  0  0  0
  6 15  2  0  0  0  0
  7  8  1  0  0  0  0
  7 24  1  0  0  0  0
  8  9  2  0  0  0  0
  8 10  1  0  0  0  0
 10 14  1  0  0  0  0
 10 11  2  0  0  0  0
 11 12  1  0  0  0  0
 11 25  1  0  0  0  0
 12 13  2  0  0  0  0
 12 26  1  0  0  0  0
 13 14  1  0  0  0  0
 13 27  1  0  0  0  0
 15 16  1  0  0  0  0
 15 28  1  0  0  0  0
 16 29  1  0  0  0  0
M  END
$$$$
