ZINC000000025974      none
 OpenBabel11202420153D

 23 24  0  0  0  0  0  0  0  0999 V2000
   32.2768   37.5448   61.0917 C   0  0  0  0  0  0  0  0  0  0  0  0
   31.8088   36.3626   60.7083 C   0  0  0  0  0  0  0  0  0  0  0  0
   30.9696   35.5472   61.6623 C   0  0  0  0  0  0  0  0  0  0  0  0
   31.5680   33.8297   61.5604 S   0  0  0  0  0  0  0  0  0  0  0  0
   31.3307   33.4706   59.7987 C   0  0  0  0  0  0  0  0  0  0  0  0
   31.9113   34.5645   58.9462 C   0  0  0  0  0  0  0  0  0  0  0  0
   32.1096   35.8639   59.3537 C   0  0  0  0  0  0  0  0  0  0  0  0
   32.6294   36.7564   58.4772 N   0  0  0  0  0  0  0  0  0  0  0  0
   32.9535   36.4229   57.2636 C   0  0  0  0  0  0  0  0  0  0  0  0
   33.5228   37.4681   56.3392 C   0  0  0  0  0  0  0  0  0  0  0  0
   32.7911   35.1621   56.8133 N   0  0  0  0  0  0  0  0  0  0  0  0
   33.0480   34.9345   55.9061 H   0  0  0  0  0  0  0  0  0  0  0  0
   32.2724   34.2200   57.6219 C   0  0  0  0  0  0  0  0  0  0  0  0
   32.1153   33.0794   57.2175 O   0  0  0  0  0  0  0  0  0  0  0  0
   32.0566   37.9179   62.0810 H   0  0  0  0  0  0  0  0  0  0  0  0
   32.8815   38.1312   60.4157 H   0  0  0  0  0  0  0  0  0  0  0  0
   31.0896   35.9233   62.6783 H   0  0  0  0  0  0  0  0  0  0  0  0
   29.9208   35.5952   61.3695 H   0  0  0  0  0  0  0  0  0  0  0  0
   31.8214   32.5282   59.5557 H   0  0  0  0  0  0  0  0  0  0  0  0
   30.2642   33.3832   59.5913 H   0  0  0  0  0  0  0  0  0  0  0  0
   32.7115   37.9557   55.7986 H   0  0  0  0  0  0  0  0  0  0  0  0
   34.0686   38.2101   56.9219 H   0  0  0  0  0  0  0  0  0  0  0  0
   34.1999   36.9944   55.6283 H   0  0  0  0  0  0  0  0  0  0  0  0
  1  2  2  0  0  0  0
  1 15  1  0  0  0  0
  1 16  1  0  0  0  0
  2  7  1  0  0  0  0
  2  3  1  0  0  0  0
  3  4  1  0  0  0  0
  3 17  1  0  0  0  0
  3 18  1  0  0  0  0
  4  5  1  0  0  0  0
  5  6  1  0  0  0  0
  5 19  1  0  0  0  0
  5 20  1  0  0  0  0
  6 13  1  0  0  0  0
  6  7  2  0  0  0  0
  7  8  1  0  0  0  0
  8  9  2  0  0  0  0
  9 10  1  0  0  0  0
  9 11  1  0  0  0  0
 10 21  1  0  0  0  0
 10 22  1  0  0  0  0
 10 23  1  0  0  0  0
 11 12  1  0  0  0  0
 11 13  1  0  0  0  0
 13 14  2  0  0  0  0
M  END
$$$$
