ZINC000000000907      none
 OpenBabel11202420153D

 23 24  0  0  0  0  0  0  0  0999 V2000
   33.2785   40.7105   59.1313 N   0  0  0  0  0  0  0  0  0  0  0  0
   33.0783   39.4469   58.6140 C   0  0  0  0  0  0  0  0  0  0  0  0
   32.5176   38.5007   59.3640 N   0  0  0  0  0  0  0  0  0  0  0  0
   32.3255   37.2905   58.8695 C   0  0  0  0  0  0  0  0  0  0  0  0
   32.6888   37.0143   57.6292 N   0  0  0  0  0  0  0  0  0  0  0  0
   33.2500   37.9550   56.8731 C   0  0  0  0  0  0  0  0  0  0  0  0
   33.6299   37.6652   55.5771 N   0  0  0  0  0  0  0  0  0  0  0  0
   33.4248   36.3828   55.0585 C   0  0  0  0  0  0  0  0  0  0  0  0
   32.6240   36.2052   53.9376 C   0  0  0  0  0  0  0  0  0  0  0  0
   32.4237   34.9375   53.4277 C   0  0  0  0  0  0  0  0  0  0  0  0
   33.0198   33.8456   54.0316 C   0  0  0  0  0  0  0  0  0  0  0  0
   33.8134   34.0182   55.1508 C   0  0  0  0  0  0  0  0  0  0  0  0
   34.0216   35.2839   55.6629 C   0  0  0  0  0  0  0  0  0  0  0  0
   33.4494   39.1717   57.3684 N   0  0  0  0  0  0  0  0  0  0  0  0
   33.0105   40.9097   60.0419 H   0  0  0  0  0  0  0  0  0  0  0  0
   33.6871   41.3995   58.5841 H   0  0  0  0  0  0  0  0  0  0  0  0
   31.8707   36.5250   59.4806 H   0  0  0  0  0  0  0  0  0  0  0  0
   34.0388   38.3512   55.0265 H   0  0  0  0  0  0  0  0  0  0  0  0
   32.1581   37.0576   53.4655 H   0  0  0  0  0  0  0  0  0  0  0  0
   31.8013   34.7986   52.5562 H   0  0  0  0  0  0  0  0  0  0  0  0
   32.8617   32.8552   53.6309 H   0  0  0  0  0  0  0  0  0  0  0  0
   34.2740   33.1629   55.6229 H   0  0  0  0  0  0  0  0  0  0  0  0
   34.6446   35.4186   56.5349 H   0  0  0  0  0  0  0  0  0  0  0  0
  1  2  1  0  0  0  0
  1 15  1  0  0  0  0
  1 16  1  0  0  0  0
  2 14  2  0  0  0  0
  2  3  1  0  0  0  0
  3  4  2  0  0  0  0
  4  5  1  0  0  0  0
  4 17  1  0  0  0  0
  5  6  2  0  0  0  0
  6  7  1  0  0  0  0
  6 14  1  0  0  0  0
  7  8  1  0  0  0  0
  7 18  1  0  0  0  0
  8 13  2  0  0  0  0
  8  9  1  0  0  0  0
  9 10  2  0  0  0  0
  9 19  1  0  0  0  0
 10 11  1  0  0  0  0
 10 20  1  0  0  0  0
 11 12  2  0  0  0  0
 11 21  1  0  0  0  0
 12 13  1  0  0  0  0
 12 22  1  0  0  0  0
 13 23  1  0  0  0  0
M  END
$$$$
