ZINC000000037201      none
 OpenBabel11202420153D

 30 31  0  0  0  0  0  0  0  0999 V2000
   34.5120   40.8468   59.1674 C   0  0  0  0  0  0  0  0  0  0  0  0
   33.2975   40.4825   58.5083 O   0  0  0  0  0  0  0  0  0  0  0  0
   33.2719   39.2770   57.8866 C   0  0  0  0  0  0  0  0  0  0  0  0
   33.6557   39.1765   56.5536 C   0  0  0  0  0  0  0  0  0  0  0  0
   33.6327   37.9665   55.9205 C   0  0  0  0  0  0  0  0  0  0  0  0
   33.2217   36.8212   56.6134 C   0  0  0  0  0  0  0  0  0  0  0  0
   33.1956   35.5191   55.9348 C   0  0  0  0  0  0  0  0  0  0  0  0
   32.8392   34.5284   56.5370 O   0  0  0  0  0  0  0  0  0  0  0  0
   32.8355   36.9217   57.9557 C   0  0  0  0  0  0  0  0  0  0  0  0
   32.8622   38.1459   58.5845 C   0  0  0  0  0  0  0  0  0  0  0  0
   32.4538   38.2594   60.0307 C   0  0  0  0  0  0  0  0  0  0  0  0
   30.9286   37.3234   60.3021 S   0  0  0  0  0  0  0  0  0  0  0  0
   30.6889   37.6212   62.0221 C   0  0  0  0  0  0  0  0  0  0  0  0
   31.6301   37.8229   62.8740 N   0  0  0  0  0  0  0  0  0  0  0  0
   31.3048   38.0604   64.2625 C   0  0  0  0  0  0  0  0  0  0  0  0
   29.7862   38.0166   64.4940 C   0  0  0  0  0  0  0  0  0  0  0  0
   29.1190   37.6790   62.8324 S   0  0  0  0  0  0  0  0  0  0  0  0
   34.7397   40.1135   59.9410 H   0  0  0  0  0  0  0  0  0  0  0  0
   35.3250   40.8741   58.4419 H   0  0  0  0  0  0  0  0  0  0  0  0
   34.3975   41.8308   59.6220 H   0  0  0  0  0  0  0  0  0  0  0  0
   33.9735   40.0584   56.0173 H   0  0  0  0  0  0  0  0  0  0  0  0
   33.9320   37.8931   54.8853 H   0  0  0  0  0  0  0  0  0  0  0  0
   33.4937   35.4437   54.8994 H   0  0  0  0  0  0  0  0  0  0  0  0
   32.5181   36.0418   58.4958 H   0  0  0  0  0  0  0  0  0  0  0  0
   33.2445   37.8574   60.6641 H   0  0  0  0  0  0  0  0  0  0  0  0
   32.2862   39.3073   60.2797 H   0  0  0  0  0  0  0  0  0  0  0  0
   31.6831   39.0386   64.5592 H   0  0  0  0  0  0  0  0  0  0  0  0
   31.7813   37.2934   64.8727 H   0  0  0  0  0  0  0  0  0  0  0  0
   29.4260   38.9761   64.8652 H   0  0  0  0  0  0  0  0  0  0  0  0
   29.5252   37.2138   65.1835 H   0  0  0  0  0  0  0  0  0  0  0  0
  1  2  1  0  0  0  0
  1 18  1  0  0  0  0
  1 19  1  0  0  0  0
  1 20  1  0  0  0  0
  2  3  1  0  0  0  0
  3 10  2  0  0  0  0
  3  4  1  0  0  0  0
  4  5  2  0  0  0  0
  4 21  1  0  0  0  0
  5  6  1  0  0  0  0
  5 22  1  0  0  0  0
  6  7  1  0  0  0  0
  6  9  2  0  0  0  0
  7  8  2  0  0  0  0
  7 23  1  0  0  0  0
  9 10  1  0  0  0  0
  9 24  1  0  0  0  0
 10 11  1  0  0  0  0
 11 12  1  0  0  0  0
 11 25  1  0  0  0  0
 11 26  1  0  0  0  0
 12 13  1  0  0  0  0
 13 17  1  0  0  0  0
 13 14  2  0  0  0  0
 14 15  1  0  0  0  0
 15 16  1  0  0  0  0
 15 27  1  0  0  0  0
 15 28  1  0  0  0  0
 16 17  1  0  0  0  0
 16 29  1  0  0  0  0
 16 30  1  0  0  0  0
M  END
$$$$
