ZINC000000032395      none
 OpenBabel11202420153D

 32 34  0  0  0  0  0  0  0  0999 V2000
   32.8090   36.2990   61.9488 O   0  0  0  0  0  0  0  0  0  0  0  0
   32.1266   36.2737   62.9448 C   0  0  0  0  0  0  0  0  0  0  0  0
   32.7524   36.1155   64.3124 C   0  0  0  0  0  0  0  0  0  0  0  0
   32.2998   37.2740   65.2055 C   0  0  0  0  0  0  0  0  0  0  0  0
   30.7717   37.2845   65.2990 C   0  0  0  0  0  0  0  0  0  0  0  0
   30.1933   37.4146   63.9078 C   0  0  0  0  0  0  0  0  0  0  0  0
   29.4139   38.2971   63.6392 O   0  0  0  0  0  0  0  0  0  0  0  0
   30.6195   36.4058   62.8603 C   0  0  0  0  0  0  0  0  0  0  0  0
   30.2179   36.8998   61.4691 C   0  0  0  0  0  0  0  0  0  0  0  0
   28.7950   36.9866   61.3687 O   0  0  0  0  0  0  0  0  0  0  0  0
   30.7613   35.9713   60.4091 C   0  0  0  0  0  0  0  0  0  0  0  0
   30.5009   34.7941   60.2831 O   0  0  0  0  0  0  0  0  0  0  0  0
   31.6671   36.7617   59.5563 C   0  0  0  0  0  0  0  0  0  0  0  0
   32.4232   36.3910   58.4416 C   0  0  0  0  0  0  0  0  0  0  0  0
   33.2106   37.3251   57.7966 C   0  0  0  0  0  0  0  0  0  0  0  0
   33.2581   38.6326   58.2474 C   0  0  0  0  0  0  0  0  0  0  0  0
   32.5177   39.0205   59.3474 C   0  0  0  0  0  0  0  0  0  0  0  0
   31.7149   38.0920   60.0147 C   0  0  0  0  0  0  0  0  0  0  0  0
   30.8433   38.2464   61.1931 C   0  0  0  0  0  0  0  0  0  0  0  0
   30.6617   39.2657   61.8238 O   0  0  0  0  0  0  0  0  0  0  0  0
   32.4340   35.1703   64.7520 H   0  0  0  0  0  0  0  0  0  0  0  0
   33.8384   36.1289   64.2202 H   0  0  0  0  0  0  0  0  0  0  0  0
   32.7236   37.1508   66.2021 H   0  0  0  0  0  0  0  0  0  0  0  0
   32.6438   38.2165   64.7792 H   0  0  0  0  0  0  0  0  0  0  0  0
   30.4276   36.3543   65.7513 H   0  0  0  0  0  0  0  0  0  0  0  0
   30.4493   38.1289   65.9083 H   0  0  0  0  0  0  0  0  0  0  0  0
   30.1512   35.4423   63.0617 H   0  0  0  0  0  0  0  0  0  0  0  0
   28.4796   37.2947   60.5080 H   0  0  0  0  0  0  0  0  0  0  0  0
   32.3924   35.3725   58.0836 H   0  0  0  0  0  0  0  0  0  0  0  0
   33.7931   37.0331   56.9353 H   0  0  0  0  0  0  0  0  0  0  0  0
   33.8771   39.3546   57.7356 H   0  0  0  0  0  0  0  0  0  0  0  0
   32.5598   40.0432   59.6923 H   0  0  0  0  0  0  0  0  0  0  0  0
  1  2  2  0  0  0  0
  2  8  1  0  0  0  0
  2  3  1  0  0  0  0
  3  4  1  0  0  0  0
  3 21  1  0  0  0  0
  3 22  1  0  0  0  0
  4  5  1  0  0  0  0
  4 23  1  0  0  0  0
  4 24  1  0  0  0  0
  5  6  1  0  0  0  0
  5 25  1  0  0  0  0
  5 26  1  0  0  0  0
  6  7  2  0  0  0  0
  6  8  1  0  0  0  0
  8  9  1  0  0  0  0
  8 27  1  0  0  0  0
  9 19  1  0  0  0  0
  9 10  1  0  0  0  0
  9 11  1  0  0  0  0
 10 28  1  0  0  0  0
 11 12  2  0  0  0  0
 11 13  1  0  0  0  0
 13 18  2  0  0  0  0
 13 14  1  0  0  0  0
 14 15  2  0  0  0  0
 14 29  1  0  0  0  0
 15 16  1  0  0  0  0
 15 30  1  0  0  0  0
 16 17  2  0  0  0  0
 16 31  1  0  0  0  0
 17 18  1  0  0  0  0
 17 32  1  0  0  0  0
 18 19  1  0  0  0  0
 19 20  2  0  0  0  0
M  END
$$$$
