ZINC000000042405      none
 OpenBabel11202420153D

 36 38  0  0  0  0  0  0  0  0999 V2000
   31.9319   36.2976   67.2671 C   0  0  0  0  0  0  0  0  0  0  0  0
   32.0177   37.1083   65.9723 C   0  0  0  0  0  0  0  0  0  0  0  0
   33.4321   37.4588   65.5060 C   0  0  0  0  0  0  0  0  0  0  0  0
   30.9667   36.8326   64.8952 C   0  0  0  0  0  0  0  0  0  0  0  0
   31.4037   36.9277   63.4561 C   0  0  0  0  0  0  0  0  0  0  0  0
   31.3644   35.9676   62.5660 N   0  0  0  0  0  0  0  0  0  0  0  0
   31.8501   36.5091   61.4261 C   0  0  0  0  0  0  0  0  0  0  0  0
   32.0072   35.8204   60.1210 C   0  0  0  0  0  0  0  0  0  0  0  0
   32.5195   36.5100   59.0239 C   0  0  0  0  0  0  0  0  0  0  0  0
   32.6690   35.8635   57.8140 C   0  0  0  0  0  0  0  0  0  0  0  0
   32.3002   34.5354   57.6861 C   0  0  0  0  0  0  0  0  0  0  0  0
   32.5010   33.6577   56.0232 Br  0  0  0  0  0  0  0  0  0  0  0  0
   31.7854   33.8476   58.7714 C   0  0  0  0  0  0  0  0  0  0  0  0
   31.6374   34.4837   59.9870 C   0  0  0  0  0  0  0  0  0  0  0  0
   32.1597   37.7517   61.6904 N   0  0  0  0  0  0  0  0  0  0  0  0
   31.9094   38.0062   62.8496 O   0  0  0  0  0  0  0  0  0  0  0  0
   30.9111   38.1302   65.7040 C   0  0  0  0  0  0  0  0  0  0  0  0
   31.3036   39.4252   64.9896 C   0  0  0  0  0  0  0  0  0  0  0  0
   29.8034   38.2633   66.7509 C   0  0  0  0  0  0  0  0  0  0  0  0
   32.7795   35.6149   67.3252 H   0  0  0  0  0  0  0  0  0  0  0  0
   31.9512   36.9743   68.1214 H   0  0  0  0  0  0  0  0  0  0  0  0
   31.0037   35.7263   67.2771 H   0  0  0  0  0  0  0  0  0  0  0  0
   33.4325   37.6061   64.4259 H   0  0  0  0  0  0  0  0  0  0  0  0
   33.7602   38.3747   65.9976 H   0  0  0  0  0  0  0  0  0  0  0  0
   34.1111   36.6456   65.7619 H   0  0  0  0  0  0  0  0  0  0  0  0
   30.2141   36.0737   65.1090 H   0  0  0  0  0  0  0  0  0  0  0  0
   32.8030   37.5475   59.1214 H   0  0  0  0  0  0  0  0  0  0  0  0
   33.0701   36.3958   56.9643 H   0  0  0  0  0  0  0  0  0  0  0  0
   31.4989   32.8117   58.6665 H   0  0  0  0  0  0  0  0  0  0  0  0
   31.2360   33.9461   60.8335 H   0  0  0  0  0  0  0  0  0  0  0  0
   30.5958   39.6251   64.1852 H   0  0  0  0  0  0  0  0  0  0  0  0
   31.2885   40.2512   65.7007 H   0  0  0  0  0  0  0  0  0  0  0  0
   32.3060   39.3215   64.5742 H   0  0  0  0  0  0  0  0  0  0  0  0
   29.2917   37.3074   66.8618 H   0  0  0  0  0  0  0  0  0  0  0  0
   30.2396   38.5551   67.7062 H   0  0  0  0  0  0  0  0  0  0  0  0
   29.0900   39.0224   66.4303 H   0  0  0  0  0  0  0  0  0  0  0  0
  1  2  1  0  0  0  0
  1 20  1  0  0  0  0
  1 21  1  0  0  0  0
  1 22  1  0  0  0  0
  2 17  1  0  0  0  0
  2  3  1  0  0  0  0
  2  4  1  0  0  0  0
  3 23  1  0  0  0  0
  3 24  1  0  0  0  0
  3 25  1  0  0  0  0
  4  5  1  0  0  0  0
  4 17  1  0  0  0  0
  4 26  1  0  0  0  0
  5 16  1  0  0  0  0
  5  6  2  0  0  0  0
  6  7  1  0  0  0  0
  7  8  1  0  0  0  0
  7 15  2  0  0  0  0
  8 14  2  0  0  0  0
  8  9  1  0  0  0  0
  9 10  2  0  0  0  0
  9 27  1  0  0  0  0
 10 11  1  0  0  0  0
 10 28  1  0  0  0  0
 11 12  1  0  0  0  0
 11 13  2  0  0  0  0
 13 14  1  0  0  0  0
 13 29  1  0  0  0  0
 14 30  1  0  0  0  0
 15 16  1  0  0  0  0
 17 18  1  0  0  0  0
 17 19  1  0  0  0  0
 18 31  1  0  0  0  0
 18 32  1  0  0  0  0
 18 33  1  0  0  0  0
 19 34  1  0  0  0  0
 19 35  1  0  0  0  0
 19 36  1  0  0  0  0
M  END
$$$$
