ZINC000000053152      none
 OpenBabel11202420153D

 35 35  0  0  0  0  0  0  0  0999 V2000
   30.8679   32.7632   58.4676 C   0  0  0  0  0  0  0  0  0  0  0  0
   30.9183   34.1579   58.8682 O   0  0  0  0  0  0  0  0  0  0  0  0
   32.1181   34.7701   58.8048 C   0  0  0  0  0  0  0  0  0  0  0  0
   33.0954   34.1544   58.4249 O   0  0  0  0  0  0  0  0  0  0  0  0
   32.2443   36.1789   59.1943 C   0  0  0  0  0  0  0  0  0  0  0  0
   31.9326   36.6426   60.4555 C   0  0  0  0  0  0  0  0  0  0  0  0
   31.4709   35.8560   61.4928 N   0  0  0  0  0  0  0  0  0  0  0  0
   30.2690   36.1094   62.0473 C   0  0  0  0  0  0  0  0  0  0  0  0
   29.5928   37.0279   61.6358 O   0  0  0  0  0  0  0  0  0  0  0  0
   29.7653   35.2511   63.1791 C   0  0  0  0  0  0  0  0  0  0  0  0
   30.7401   35.3346   64.3553 C   0  0  0  0  0  0  0  0  0  0  0  0
   28.3878   35.7481   63.6221 C   0  0  0  0  0  0  0  0  0  0  0  0
   32.2049   38.3237   60.5550 S   0  0  0  0  0  0  0  0  0  0  0  0
   32.7352   38.3968   58.8821 C   0  0  0  0  0  0  0  0  0  0  0  0
   33.1686   39.6135   58.1919 C   0  0  0  0  0  0  0  0  0  0  0  0
   33.1797   40.7918   58.8462 N   0  0  0  0  0  0  0  0  0  0  0  0
   33.5189   39.5607   57.0274 O   0  0  0  0  0  0  0  0  0  0  0  0
   32.6857   37.1695   58.3261 C   0  0  0  0  0  0  0  0  0  0  0  0
   33.0783   36.8965   56.8969 C   0  0  0  0  0  0  0  0  0  0  0  0
   29.8472   32.3936   58.5660 H   0  0  0  0  0  0  0  0  0  0  0  0
   31.1890   32.6714   57.4301 H   0  0  0  0  0  0  0  0  0  0  0  0
   31.5295   32.1776   59.1060 H   0  0  0  0  0  0  0  0  0  0  0  0
   32.0118   35.1212   61.8221 H   0  0  0  0  0  0  0  0  0  0  0  0
   29.6879   34.2168   62.8441 H   0  0  0  0  0  0  0  0  0  0  0  0
   30.8176   36.3690   64.6903 H   0  0  0  0  0  0  0  0  0  0  0  0
   30.3759   34.7139   65.1738 H   0  0  0  0  0  0  0  0  0  0  0  0
   31.7216   34.9806   64.0397 H   0  0  0  0  0  0  0  0  0  0  0  0
   28.4652   36.7824   63.9572 H   0  0  0  0  0  0  0  0  0  0  0  0
   27.6933   35.6887   62.7843 H   0  0  0  0  0  0  0  0  0  0  0  0
   28.0236   35.1274   64.4407 H   0  0  0  0  0  0  0  0  0  0  0  0
   32.9005   40.8339   59.7742 H   0  0  0  0  0  0  0  0  0  0  0  0
   33.4668   41.5977   58.3891 H   0  0  0  0  0  0  0  0  0  0  0  0
   34.1406   36.6567   56.8514 H   0  0  0  0  0  0  0  0  0  0  0  0
   32.4993   36.0555   56.5154 H   0  0  0  0  0  0  0  0  0  0  0  0
   32.8789   37.7799   56.2903 H   0  0  0  0  0  0  0  0  0  0  0  0
  1  2  1  0  0  0  0
  1 20  1  0  0  0  0
  1 21  1  0  0  0  0
  1 22  1  0  0  0  0
  2  3  1  0  0  0  0
  3  4  2  0  0  0  0
  3  5  1  0  0  0  0
  5 18  1  0  0  0  0
  5  6  2  0  0  0  0
  6  7  1  0  0  0  0
  6 13  1  0  0  0  0
  7  8  1  0  0  0  0
  7 23  1  0  0  0  0
  8  9  2  0  0  0  0
  8 10  1  0  0  0  0
 10 11  1  0  0  0  0
 10 12  1  0  0  0  0
 10 24  1  0  0  0  0
 11 25  1  0  0  0  0
 11 26  1  0  0  0  0
 11 27  1  0  0  0  0
 12 28  1  0  0  0  0
 12 29  1  0  0  0  0
 12 30  1  0  0  0  0
 13 14  1  0  0  0  0
 14 15  1  0  0  0  0
 14 18  2  0  0  0  0
 15 16  1  0  0  0  0
 15 17  2  0  0  0  0
 16 31  1  0  0  0  0
 16 32  1  0  0  0  0
 18 19  1  0  0  0  0
 19 33  1  0  0  0  0
 19 34  1  0  0  0  0
 19 35  1  0  0  0  0
M  END
$$$$
