ZINC000000054184      none
 OpenBabel11202420153D

 36 39  0  0  0  0  0  0  0  0999 V2000
   30.5031   34.5297   63.6018 C   0  0  0  0  0  0  0  0  0  0  0  0
   30.9982   35.6438   62.7160 C   0  0  0  0  0  0  0  0  0  0  0  0
   32.3422   35.9693   62.7030 C   0  0  0  0  0  0  0  0  0  0  0  0
   32.7985   36.9935   61.8967 C   0  0  0  0  0  0  0  0  0  0  0  0
   31.9057   37.6970   61.0982 C   0  0  0  0  0  0  0  0  0  0  0  0
   32.3640   38.7337   60.2807 N   0  0  0  0  0  0  0  0  0  0  0  0
   32.7697   38.4661   58.9904 C   0  0  0  0  0  0  0  0  0  0  0  0
   33.1987   39.4467   58.2299 N   0  0  0  0  0  0  0  0  0  0  0  0
   33.6071   39.2234   56.9528 C   0  0  0  0  0  0  0  0  0  0  0  0
   34.0657   40.0275   56.0218 N   0  0  0  0  0  0  0  0  0  0  0  0
   34.3371   39.2479   54.8706 O   0  0  0  0  0  0  0  0  0  0  0  0
   34.0079   37.9038   55.1725 N   0  0  0  0  0  0  0  0  0  0  0  0
   33.5728   37.8596   56.3995 C   0  0  0  0  0  0  0  0  0  0  0  0
   33.1205   36.8205   57.2017 N   0  0  0  0  0  0  0  0  0  0  0  0
   32.9609   35.4939   57.0271 C   0  0  0  0  0  0  0  0  0  0  0  0
   33.2686   34.7160   55.7737 C   0  0  0  0  0  0  0  0  0  0  0  0
   32.1358   33.7662   55.4811 C   0  0  0  0  0  0  0  0  0  0  0  0
   31.4042   33.2581   56.4926 N   0  0  0  0  0  0  0  0  0  0  0  0
   31.8825   33.4589   54.3356 O   0  0  0  0  0  0  0  0  0  0  0  0
   32.4892   35.0042   58.1481 N   0  0  0  0  0  0  0  0  0  0  0  0
   32.3436   35.9446   59.0149 N   0  0  0  0  0  0  0  0  0  0  0  0
   32.7220   37.0894   58.4880 C   0  0  0  0  0  0  0  0  0  0  0  0
   30.5563   37.3674   61.1136 C   0  0  0  0  0  0  0  0  0  0  0  0
   30.1066   36.3422   61.9223 C   0  0  0  0  0  0  0  0  0  0  0  0
   30.5349   33.5882   63.0534 H   0  0  0  0  0  0  0  0  0  0  0  0
   31.1384   34.4578   64.4846 H   0  0  0  0  0  0  0  0  0  0  0  0
   29.4778   34.7374   63.9081 H   0  0  0  0  0  0  0  0  0  0  0  0
   33.0358   35.4222   63.3243 H   0  0  0  0  0  0  0  0  0  0  0  0
   33.8483   37.2470   61.8868 H   0  0  0  0  0  0  0  0  0  0  0  0
   32.3967   39.6414   60.6209 H   0  0  0  0  0  0  0  0  0  0  0  0
   33.3893   35.4058   54.9383 H   0  0  0  0  0  0  0  0  0  0  0  0
   34.1898   34.1505   55.9140 H   0  0  0  0  0  0  0  0  0  0  0  0
   31.6067   33.5038   57.4088 H   0  0  0  0  0  0  0  0  0  0  0  0
   30.6749   32.6467   56.3043 H   0  0  0  0  0  0  0  0  0  0  0  0
   29.8594   37.9126   60.4943 H   0  0  0  0  0  0  0  0  0  0  0  0
   29.0578   36.0852   61.9346 H   0  0  0  0  0  0  0  0  0  0  0  0
  1  2  1  0  0  0  0
  1 25  1  0  0  0  0
  1 26  1  0  0  0  0
  1 27  1  0  0  0  0
  2 24  2  0  0  0  0
  2  3  1  0  0  0  0
  3  4  2  0  0  0  0
  3 28  1  0  0  0  0
  4  5  1  0  0  0  0
  4 29  1  0  0  0  0
  5  6  1  0  0  0  0
  5 23  2  0  0  0  0
  6  7  1  0  0  0  0
  6 30  1  0  0  0  0
  7 22  1  0  0  0  0
  7  8  2  0  0  0  0
  8  9  1  0  0  0  0
  9 13  1  0  0  0  0
  9 10  2  0  0  0  0
 10 11  1  0  0  0  0
 11 12  1  0  0  0  0
 12 13  2  0  0  0  0
 13 14  1  0  0  0  0
 14 22  1  0  0  0  0
 14 15  1  0  0  0  0
 15 16  1  0  0  0  0
 15 20  2  0  0  0  0
 16 17  1  0  0  0  0
 16 31  1  0  0  0  0
 16 32  1  0  0  0  0
 17 18  1  0  0  0  0
 17 19  2  0  0  0  0
 18 33  1  0  0  0  0
 18 34  1  0  0  0  0
 20 21  1  0  0  0  0
 21 22  2  0  0  0  0
 23 24  1  0  0  0  0
 23 35  1  0  0  0  0
 24 36  1  0  0  0  0
M  END
$$$$
