ZINC000000033233      none
 OpenBabel11202420153D

 34 35  0  0  0  0  0  0  0  0999 V2000
   33.7696   34.8526   54.6599 C   0  0  0  0  0  0  0  0  0  0  0  0
   33.4762   35.5828   55.8527 O   0  0  0  0  0  0  0  0  0  0  0  0
   33.6754   36.9213   55.8185 C   0  0  0  0  0  0  0  0  0  0  0  0
   34.1390   37.5304   54.6619 C   0  0  0  0  0  0  0  0  0  0  0  0
   34.3461   38.8953   54.6347 C   0  0  0  0  0  0  0  0  0  0  0  0
   34.8471   39.5361   53.3981 N   0  0  0  0  0  0  0  0  0  0  0  0
   35.0931   38.8050   52.3306 O   0  0  0  0  0  0  0  0  0  0  0  0
   35.0471   40.8375   53.3651 O   0  0  0  0  0  0  0  0  0  0  0  0
   34.0882   39.6741   55.7585 C   0  0  0  0  0  0  0  0  0  0  0  0
   33.6268   39.1037   56.9065 C   0  0  0  0  0  0  0  0  0  0  0  0
   33.4071   37.7130   56.9617 C   0  0  0  0  0  0  0  0  0  0  0  0
   32.9293   37.1132   58.1480 C   0  0  0  0  0  0  0  0  0  0  0  0
   32.6215   37.8021   59.3467 C   0  0  0  0  0  0  0  0  0  0  0  0
   32.1948   36.8821   60.2492 C   0  0  0  0  0  0  0  0  0  0  0  0
   32.2458   35.5812   59.5696 C   0  0  0  0  0  0  0  0  0  0  0  0
   31.8963   34.3534   60.1160 C   0  0  0  0  0  0  0  0  0  0  0  0
   31.4672   34.2830   61.3698 N   0  0  0  0  0  0  0  0  0  0  0  0
   31.1425   33.1424   61.8775 N   0  0  0  0  0  0  0  0  0  0  0  0
   30.7067   33.0710   63.1508 C   0  0  0  0  0  0  0  0  0  0  0  0
   30.3676   31.8792   63.6812 N   0  0  0  0  0  0  0  0  0  0  0  0
   30.5837   34.4940   64.0945 S   0  0  0  0  0  0  0  0  0  0  0  0
   32.6904   35.8005   58.3129 O   0  0  0  0  0  0  0  0  0  0  0  0
   33.1455   35.2209   53.8457 H   0  0  0  0  0  0  0  0  0  0  0  0
   34.8200   34.9859   54.4014 H   0  0  0  0  0  0  0  0  0  0  0  0
   33.5669   33.7941   54.8229 H   0  0  0  0  0  0  0  0  0  0  0  0
   34.3421   36.9362   53.7832 H   0  0  0  0  0  0  0  0  0  0  0  0
   34.2556   40.7404   55.7204 H   0  0  0  0  0  0  0  0  0  0  0  0
   33.4292   39.7170   57.7733 H   0  0  0  0  0  0  0  0  0  0  0  0
   32.7101   38.8656   59.5123 H   0  0  0  0  0  0  0  0  0  0  0  0
   31.8805   37.0697   61.2654 H   0  0  0  0  0  0  0  0  0  0  0  0
   31.9739   33.4556   59.5206 H   0  0  0  0  0  0  0  0  0  0  0  0
   31.2122   32.3362   61.3427 H   0  0  0  0  0  0  0  0  0  0  0  0
   30.4372   31.0730   63.1465 H   0  0  0  0  0  0  0  0  0  0  0  0
   30.0539   31.8279   64.5976 H   0  0  0  0  0  0  0  0  0  0  0  0
  1  2  1  0  0  0  0
  1 23  1  0  0  0  0
  1 24  1  0  0  0  0
  1 25  1  0  0  0  0
  2  3  1  0  0  0  0
  3 11  2  0  0  0  0
  3  4  1  0  0  0  0
  4  5  2  0  0  0  0
  4 26  1  0  0  0  0
  5  6  1  0  0  0  0
  5  9  1  0  0  0  0
  6  7  2  0  0  0  0
  6  8  2  0  0  0  0
  9 10  2  0  0  0  0
  9 27  1  0  0  0  0
 10 11  1  0  0  0  0
 10 28  1  0  0  0  0
 11 12  1  0  0  0  0
 12 22  1  0  0  0  0
 12 13  2  0  0  0  0
 13 14  1  0  0  0  0
 13 29  1  0  0  0  0
 14 15  2  0  0  0  0
 14 30  1  0  0  0  0
 15 16  1  0  0  0  0
 15 22  1  0  0  0  0
 16 17  2  0  0  0  0
 16 31  1  0  0  0  0
 17 18  1  0  0  0  0
 18 19  1  0  0  0  0
 18 32  1  0  0  0  0
 19 20  1  0  0  0  0
 19 21  2  0  0  0  0
 20 33  1  0  0  0  0
 20 34  1  0  0  0  0
M  END
$$$$
