ZINC000000037085      none
 OpenBabel11202420153D

 38 39  0  0  0  0  0  0  0  0999 V2000
   30.7530   38.8032   62.3603 C   0  0  0  0  0  0  0  0  0  0  0  0
   31.1652   38.6067   61.0062 O   0  0  0  0  0  0  0  0  0  0  0  0
   31.8688   37.4876   60.7363 C   0  0  0  0  0  0  0  0  0  0  0  0
   32.1251   36.7003   61.6278 O   0  0  0  0  0  0  0  0  0  0  0  0
   32.3235   37.2208   59.3722 C   0  0  0  0  0  0  0  0  0  0  0  0
   32.7216   38.4529   58.1853 S   0  0  0  0  0  0  0  0  0  0  0  0
   33.1108   37.2780   57.0113 C   0  0  0  0  0  0  0  0  0  0  0  0
   33.5383   37.5571   55.7296 N   0  0  0  0  0  0  0  0  0  0  0  0
   34.2375   38.6825   55.4824 C   0  0  0  0  0  0  0  0  0  0  0  0
   34.4914   39.4515   56.3887 O   0  0  0  0  0  0  0  0  0  0  0  0
   34.6901   38.9844   54.1083 C   0  0  0  0  0  0  0  0  0  0  0  0
   34.9182   37.9477   53.2016 C   0  0  0  0  0  0  0  0  0  0  0  0
   35.3355   38.2369   51.9189 C   0  0  0  0  0  0  0  0  0  0  0  0
   35.5382   39.5503   51.5335 C   0  0  0  0  0  0  0  0  0  0  0  0
   35.3195   40.5822   52.4290 C   0  0  0  0  0  0  0  0  0  0  0  0
   34.8970   40.3073   53.7131 C   0  0  0  0  0  0  0  0  0  0  0  0
   32.9320   36.0088   57.5232 C   0  0  0  0  0  0  0  0  0  0  0  0
   33.1817   34.7892   56.7467 C   0  0  0  0  0  0  0  0  0  0  0  0
   34.0108   33.9851   57.1273 O   0  0  0  0  0  0  0  0  0  0  0  0
   32.4918   34.5601   55.6110 O   0  0  0  0  0  0  0  0  0  0  0  0
   32.7910   33.3332   54.8942 C   0  0  0  0  0  0  0  0  0  0  0  0
   32.4981   35.9922   58.8420 C   0  0  0  0  0  0  0  0  0  0  0  0
   32.2398   34.7204   59.6080 C   0  0  0  0  0  0  0  0  0  0  0  0
   30.1977   39.7378   62.4390 H   0  0  0  0  0  0  0  0  0  0  0  0
   30.1159   37.9748   62.6701 H   0  0  0  0  0  0  0  0  0  0  0  0
   31.6311   38.8469   63.0046 H   0  0  0  0  0  0  0  0  0  0  0  0
   33.3357   36.9434   55.0062 H   0  0  0  0  0  0  0  0  0  0  0  0
   34.7647   36.9219   53.5024 H   0  0  0  0  0  0  0  0  0  0  0  0
   35.5081   37.4362   51.2150 H   0  0  0  0  0  0  0  0  0  0  0  0
   35.8690   39.7709   50.5294 H   0  0  0  0  0  0  0  0  0  0  0  0
   35.4802   41.6051   52.1221 H   0  0  0  0  0  0  0  0  0  0  0  0
   34.7269   41.1136   54.4112 H   0  0  0  0  0  0  0  0  0  0  0  0
   32.1679   33.2726   54.0018 H   0  0  0  0  0  0  0  0  0  0  0  0
   33.8418   33.3285   54.6047 H   0  0  0  0  0  0  0  0  0  0  0  0
   32.5877   32.4775   55.5380 H   0  0  0  0  0  0  0  0  0  0  0  0
   31.2027   34.4160   59.4676 H   0  0  0  0  0  0  0  0  0  0  0  0
   32.9015   33.9353   59.2423 H   0  0  0  0  0  0  0  0  0  0  0  0
   32.4285   34.8900   60.6681 H   0  0  0  0  0  0  0  0  0  0  0  0
  1  2  1  0  0  0  0
  1 24  1  0  0  0  0
  1 25  1  0  0  0  0
  1 26  1  0  0  0  0
  2  3  1  0  0  0  0
  3  4  2  0  0  0  0
  3  5  1  0  0  0  0
  5 22  2  0  0  0  0
  5  6  1  0  0  0  0
  6  7  1  0  0  0  0
  7  8  1  0  0  0  0
  7 17  2  0  0  0  0
  8  9  1  0  0  0  0
  8 27  1  0  0  0  0
  9 10  2  0  0  0  0
  9 11  1  0  0  0  0
 11 16  2  0  0  0  0
 11 12  1  0  0  0  0
 12 13  2  0  0  0  0
 12 28  1  0  0  0  0
 13 14  1  0  0  0  0
 13 29  1  0  0  0  0
 14 15  2  0  0  0  0
 14 30  1  0  0  0  0
 15 16  1  0  0  0  0
 15 31  1  0  0  0  0
 16 32  1  0  0  0  0
 17 18  1  0  0  0  0
 17 22  1  0  0  0  0
 18 19  2  0  0  0  0
 18 20  1  0  0  0  0
 20 21  1  0  0  0  0
 21 33  1  0  0  0  0
 21 34  1  0  0  0  0
 21 35  1  0  0  0  0
 22 23  1  0  0  0  0
 23 36  1  0  0  0  0
 23 37  1  0  0  0  0
 23 38  1  0  0  0  0
M  END
$$$$
