ZINC000000040931      none
 OpenBabel11202420153D

 36 37  0  0  0  0  0  0  0  0999 V2000
   34.1251   36.6179   54.2865 C   0  0  0  0  0  0  0  0  0  0  0  0
   34.0500   37.9719   54.7374 O   0  0  0  0  0  0  0  0  0  0  0  0
   33.6361   38.1745   56.0166 C   0  0  0  0  0  0  0  0  0  0  0  0
   33.5410   39.4642   56.5184 C   0  0  0  0  0  0  0  0  0  0  0  0
   33.1212   39.6708   57.8176 C   0  0  0  0  0  0  0  0  0  0  0  0
   32.7942   38.5870   58.6218 C   0  0  0  0  0  0  0  0  0  0  0  0
   32.3682   38.7958   59.9401 N   0  0  0  0  0  0  0  0  0  0  0  0
   31.5129   37.9287   60.5171 C   0  0  0  0  0  0  0  0  0  0  0  0
   31.1118   36.9676   59.8952 O   0  0  0  0  0  0  0  0  0  0  0  0
   31.0547   38.1531   61.9352 C   0  0  0  0  0  0  0  0  0  0  0  0
   32.1896   37.3229   63.0746 S   0  0  0  0  0  0  0  0  0  0  0  0
   32.0471   38.3830   64.4750 C   0  0  0  0  0  0  0  0  0  0  0  0
   31.2969   39.4561   64.5683 N   0  0  0  0  0  0  0  0  0  0  0  0
   31.4369   39.9869   65.7305 N   0  0  0  0  0  0  0  0  0  0  0  0
   32.2775   39.2905   66.4419 C   0  0  0  0  0  0  0  0  0  0  0  0
   32.7086   39.5843   67.8558 C   0  0  0  0  0  0  0  0  0  0  0  0
   32.0631   40.7396   68.3095 F   0  0  0  0  0  0  0  0  0  0  0  0
   32.3694   38.5062   68.6804 F   0  0  0  0  0  0  0  0  0  0  0  0
   34.0935   39.7799   67.8899 F   0  0  0  0  0  0  0  0  0  0  0  0
   32.6965   38.2438   65.6679 N   0  0  0  0  0  0  0  0  0  0  0  0
   33.6456   37.1921   66.0410 C   0  0  0  0  0  0  0  0  0  0  0  0
   32.8952   37.2961   58.1206 C   0  0  0  0  0  0  0  0  0  0  0  0
   33.3097   37.0914   56.8194 C   0  0  0  0  0  0  0  0  0  0  0  0
   34.4678   36.5978   53.2519 H   0  0  0  0  0  0  0  0  0  0  0  0
   34.8258   36.0650   54.9121 H   0  0  0  0  0  0  0  0  0  0  0  0
   33.1391   36.1581   54.3517 H   0  0  0  0  0  0  0  0  0  0  0  0
   33.7957   40.3071   55.8930 H   0  0  0  0  0  0  0  0  0  0  0  0
   33.0475   40.6749   58.2083 H   0  0  0  0  0  0  0  0  0  0  0  0
   32.6889   39.5643   60.4374 H   0  0  0  0  0  0  0  0  0  0  0  0
   30.0511   37.7466   62.0614 H   0  0  0  0  0  0  0  0  0  0  0  0
   31.0430   39.2221   62.1483 H   0  0  0  0  0  0  0  0  0  0  0  0
   34.6561   37.5047   65.7781 H   0  0  0  0  0  0  0  0  0  0  0  0
   33.5879   37.0149   67.1150 H   0  0  0  0  0  0  0  0  0  0  0  0
   33.3989   36.2741   65.5076 H   0  0  0  0  0  0  0  0  0  0  0  0
   32.6456   36.4525   58.7471 H   0  0  0  0  0  0  0  0  0  0  0  0
   33.3839   36.0875   56.4281 H   0  0  0  0  0  0  0  0  0  0  0  0
  1  2  1  0  0  0  0
  1 24  1  0  0  0  0
  1 25  1  0  0  0  0
  1 26  1  0  0  0  0
  2  3  1  0  0  0  0
  3 23  2  0  0  0  0
  3  4  1  0  0  0  0
  4  5  2  0  0  0  0
  4 27  1  0  0  0  0
  5  6  1  0  0  0  0
  5 28  1  0  0  0  0
  6  7  1  0  0  0  0
  6 22  2  0  0  0  0
  7  8  1  0  0  0  0
  7 29  1  0  0  0  0
  8  9  2  0  0  0  0
  8 10  1  0  0  0  0
 10 11  1  0  0  0  0
 10 30  1  0  0  0  0
 10 31  1  0  0  0  0
 11 12  1  0  0  0  0
 12 20  1  0  0  0  0
 12 13  2  0  0  0  0
 13 14  1  0  0  0  0
 14 15  2  0  0  0  0
 15 16  1  0  0  0  0
 15 20  1  0  0  0  0
 16 17  1  0  0  0  0
 16 18  1  0  0  0  0
 16 19  1  0  0  0  0
 20 21  1  0  0  0  0
 21 32  1  0  0  0  0
 21 33  1  0  0  0  0
 21 34  1  0  0  0  0
 22 23  1  0  0  0  0
 22 35  1  0  0  0  0
 23 36  1  0  0  0  0
M  END
$$$$
