ZINC000000042088      none
 OpenBabel11202420153D

 39 40  0  0  1  0  0  0  0  0999 V2000
   32.7870   36.5120   64.8558 C   0  0  0  0  0  0  0  0  0  0  0  0
   31.8239   36.8571   63.7180 C   0  0  2  0  0  0  0  0  0  0  0  0
   30.8698   36.3572   63.8846 H   0  0  0  0  0  0  0  0  0  0  0  0
   32.4188   36.3928   62.3860 C   0  0  0  0  0  0  0  0  0  0  0  0
   31.5261   36.7954   61.2896 N   0  0  0  0  0  0  0  0  0  0  0  0
   32.0087   36.3413   60.0576 C   0  0  0  0  0  0  0  0  0  0  0  0
   32.1801   34.9806   59.8377 C   0  0  0  0  0  0  0  0  0  0  0  0
   32.6568   34.5327   58.6218 C   0  0  0  0  0  0  0  0  0  0  0  0
   32.9640   35.4431   57.6183 C   0  0  0  0  0  0  0  0  0  0  0  0
   33.4495   34.9874   56.3851 N   0  0  0  0  0  0  0  0  0  0  0  0
   33.0785   33.7782   55.9199 C   0  0  0  0  0  0  0  0  0  0  0  0
   32.3253   33.0837   56.5691 O   0  0  0  0  0  0  0  0  0  0  0  0
   33.5944   33.2917   54.5901 C   0  0  0  0  0  0  0  0  0  0  0  0
   34.8524   32.5546   54.7919 C   0  0  0  0  0  0  0  0  0  0  0  0
   35.8233   31.9857   54.9476 N   0  0  0  0  0  0  0  0  0  0  0  0
   32.7989   36.8029   57.8407 C   0  0  0  0  0  0  0  0  0  0  0  0
   32.3171   37.2510   59.0545 C   0  0  0  0  0  0  0  0  0  0  0  0
   31.3405   38.2537   61.2777 C   0  0  0  0  0  0  0  0  0  0  0  0
   30.7564   38.6995   62.6208 C   0  0  1  0  0  0  0  0  0  0  0  0
   30.6699   39.7858   62.6383 H   0  0  0  0  0  0  0  0  0  0  0  0
   29.3730   38.0736   62.8093 C   0  0  0  0  0  0  0  0  0  0  0  0
   31.6215   38.2723   63.6765 O   0  0  0  0  0  0  0  0  0  0  0  0
   33.7404   37.0135   64.6895 H   0  0  0  0  0  0  0  0  0  0  0  0
   32.3628   36.8428   65.8038 H   0  0  0  0  0  0  0  0  0  0  0  0
   32.9437   35.4337   64.8844 H   0  0  0  0  0  0  0  0  0  0  0  0
   32.5217   35.3077   62.3919 H   0  0  0  0  0  0  0  0  0  0  0  0
   33.3978   36.8510   62.2452 H   0  0  0  0  0  0  0  0  0  0  0  0
   31.9407   34.2730   60.6177 H   0  0  0  0  0  0  0  0  0  0  0  0
   32.7897   33.4747   58.4506 H   0  0  0  0  0  0  0  0  0  0  0  0
   34.0519   35.5430   55.8659 H   0  0  0  0  0  0  0  0  0  0  0  0
   32.8563   32.6325   54.1331 H   0  0  0  0  0  0  0  0  0  0  0  0
   33.7741   34.1448   53.9359 H   0  0  0  0  0  0  0  0  0  0  0  0
   33.0426   37.5107   57.0620 H   0  0  0  0  0  0  0  0  0  0  0  0
   32.1839   38.3090   59.2254 H   0  0  0  0  0  0  0  0  0  0  0  0
   32.3021   38.7417   61.1191 H   0  0  0  0  0  0  0  0  0  0  0  0
   30.6561   38.5270   60.4745 H   0  0  0  0  0  0  0  0  0  0  0  0
   28.9593   38.3882   63.7674 H   0  0  0  0  0  0  0  0  0  0  0  0
   28.7142   38.3995   62.0044 H   0  0  0  0  0  0  0  0  0  0  0  0
   29.4600   36.9872   62.7902 H   0  0  0  0  0  0  0  0  0  0  0  0
  1  2  1  0  0  0  0
  1 23  1  0  0  0  0
  1 24  1  0  0  0  0
  1 25  1  0  0  0  0
  2  3  1  1  0  0  0
  2 22  1  0  0  0  0
  2  4  1  0  0  0  0
  4  5  1  0  0  0  0
  4 26  1  0  0  0  0
  4 27  1  0  0  0  0
  5  6  1  0  0  0  0
  5 18  1  0  0  0  0
  6 17  2  0  0  0  0
  6  7  1  0  0  0  0
  7  8  2  0  0  0  0
  7 28  1  0  0  0  0
  8  9  1  0  0  0  0
  8 29  1  0  0  0  0
  9 10  1  0  0  0  0
  9 16  2  0  0  0  0
 10 11  1  0  0  0  0
 10 30  1  0  0  0  0
 11 12  2  0  0  0  0
 11 13  1  0  0  0  0
 13 14  1  0  0  0  0
 13 31  1  0  0  0  0
 13 32  1  0  0  0  0
 14 15  3  0  0  0  0
 16 17  1  0  0  0  0
 16 33  1  0  0  0  0
 17 34  1  0  0  0  0
 18 19  1  0  0  0  0
 18 35  1  0  0  0  0
 18 36  1  0  0  0  0
 19 20  1  1  0  0  0
 19 21  1  0  0  0  0
 19 22  1  0  0  0  0
 21 37  1  0  0  0  0
 21 38  1  0  0  0  0
 21 39  1  0  0  0  0
M  END
$$$$
