ZINC000000052960      none
 OpenBabel11202420153D

 45 48  0  0  0  0  0  0  0  0999 V2000
   31.5008   34.2178   62.6147 S   0  0  0  0  0  0  0  0  0  0  0  0
   31.6838   35.9151   62.4849 C   0  0  0  0  0  0  0  0  0  0  0  0
   32.0823   36.6995   63.6541 C   0  0  0  0  0  0  0  0  0  0  0  0
   33.2533   36.5531   64.3663 C   0  0  0  0  0  0  0  0  0  0  0  0
   33.2213   37.5009   65.3947 C   0  0  0  0  0  0  0  0  0  0  0  0
   32.0454   38.1838   65.2746 C   0  0  0  0  0  0  0  0  0  0  0  0
   31.5933   39.2805   66.1544 C   0  0  0  0  0  0  0  0  0  0  0  0
   30.3663   39.9057   65.9221 C   0  0  0  0  0  0  0  0  0  0  0  0
   29.9475   40.9254   66.7513 C   0  0  0  0  0  0  0  0  0  0  0  0
   30.7454   41.3369   67.8042 C   0  0  0  0  0  0  0  0  0  0  0  0
   31.9649   40.7259   68.0367 C   0  0  0  0  0  0  0  0  0  0  0  0
   32.3934   39.7009   67.2189 C   0  0  0  0  0  0  0  0  0  0  0  0
   31.3699   37.6964   64.2198 O   0  0  0  0  0  0  0  0  0  0  0  0
   31.4610   36.5288   61.3058 N   0  0  0  0  0  0  0  0  0  0  0  0
   31.0596   35.7594   60.1184 C   0  0  0  0  0  0  0  0  0  0  0  0
   31.9882   36.1343   58.9586 C   0  0  0  0  0  0  0  0  0  0  0  0
   31.9843   37.5929   58.7841 N   0  0  0  0  0  0  0  0  0  0  0  0
   32.6889   37.9615   57.6358 C   0  0  0  0  0  0  0  0  0  0  0  0
   33.2762   36.9884   56.8372 C   0  0  0  0  0  0  0  0  0  0  0  0
   33.9725   37.3563   55.7027 C   0  0  0  0  0  0  0  0  0  0  0  0
   34.0855   38.6916   55.3615 C   0  0  0  0  0  0  0  0  0  0  0  0
   33.5021   39.6629   56.1543 C   0  0  0  0  0  0  0  0  0  0  0  0
   32.8043   39.3019   57.2902 C   0  0  0  0  0  0  0  0  0  0  0  0
   32.5194   38.2729   59.9711 C   0  0  0  0  0  0  0  0  0  0  0  0
   31.6126   37.9856   61.1726 C   0  0  0  0  0  0  0  0  0  0  0  0
   34.0430   35.8433   64.1688 H   0  0  0  0  0  0  0  0  0  0  0  0
   33.9834   37.6618   66.1428 H   0  0  0  0  0  0  0  0  0  0  0  0
   29.7448   39.5886   65.0976 H   0  0  0  0  0  0  0  0  0  0  0  0
   28.9967   41.4064   66.5757 H   0  0  0  0  0  0  0  0  0  0  0  0
   30.4148   42.1392   68.4474 H   0  0  0  0  0  0  0  0  0  0  0  0
   32.5825   41.0518   68.8606 H   0  0  0  0  0  0  0  0  0  0  0  0
   33.3453   39.2246   67.4017 H   0  0  0  0  0  0  0  0  0  0  0  0
   30.0297   36.0018   59.8560 H   0  0  0  0  0  0  0  0  0  0  0  0
   31.1460   34.6929   60.3267 H   0  0  0  0  0  0  0  0  0  0  0  0
   31.6376   35.6575   58.0431 H   0  0  0  0  0  0  0  0  0  0  0  0
   33.0009   35.7970   59.1798 H   0  0  0  0  0  0  0  0  0  0  0  0
   33.1885   35.9454   57.1032 H   0  0  0  0  0  0  0  0  0  0  0  0
   34.4296   36.6004   55.0815 H   0  0  0  0  0  0  0  0  0  0  0  0
   34.6344   38.9769   54.4762 H   0  0  0  0  0  0  0  0  0  0  0  0
   33.5925   40.7048   55.8852 H   0  0  0  0  0  0  0  0  0  0  0  0
   32.3486   40.0609   57.9087 H   0  0  0  0  0  0  0  0  0  0  0  0
   33.5247   37.9059   60.1784 H   0  0  0  0  0  0  0  0  0  0  0  0
   32.5540   39.3472   59.7903 H   0  0  0  0  0  0  0  0  0  0  0  0
   30.6359   38.4421   61.0115 H   0  0  0  0  0  0  0  0  0  0  0  0
   32.0645   38.3911   62.0777 H   0  0  0  0  0  0  0  0  0  0  0  0
  1  2  2  0  0  0  0
  2  3  1  0  0  0  0
  2 14  1  0  0  0  0
  3 13  1  0  0  0  0
  3  4  2  0  0  0  0
  4  5  1  0  0  0  0
  4 26  1  0  0  0  0
  5  6  2  0  0  0  0
  5 27  1  0  0  0  0
  6  7  1  0  0  0  0
  6 13  1  0  0  0  0
  7 12  2  0  0  0  0
  7  8  1  0  0  0  0
  8  9  2  0  0  0  0
  8 28  1  0  0  0  0
  9 10  1  0  0  0  0
  9 29  1  0  0  0  0
 10 11  2  0  0  0  0
 10 30  1  0  0  0  0
 11 12  1  0  0  0  0
 11 31  1  0  0  0  0
 12 32  1  0  0  0  0
 14 25  1  0  0  0  0
 14 15  1  0  0  0  0
 15 16  1  0  0  0  0
 15 33  1  0  0  0  0
 15 34  1  0  0  0  0
 16 17  1  0  0  0  0
 16 35  1  0  0  0  0
 16 36  1  0  0  0  0
 17 18  1  0  0  0  0
 17 24  1  0  0  0  0
 18 23  2  0  0  0  0
 18 19  1  0  0  0  0
 19 20  2  0  0  0  0
 19 37  1  0  0  0  0
 20 21  1  0  0  0  0
 20 38  1  0  0  0  0
 21 22  2  0  0  0  0
 21 39  1  0  0  0  0
 22 23  1  0  0  0  0
 22 40  1  0  0  0  0
 23 41  1  0  0  0  0
 24 25  1  0  0  0  0
 24 42  1  0  0  0  0
 24 43  1  0  0  0  0
 25 44  1  0  0  0  0
 25 45  1  0  0  0  0
M  END
$$$$
