ZINC000000034222      none
 OpenBabel11202420153D

 28 30  0  0  0  0  0  0  0  0999 V2000
   29.3741   38.9275   64.8650 N   0  0  0  0  0  0  0  0  0  0  0  0
   29.7411   38.2276   64.0489 C   0  0  0  0  0  0  0  0  0  0  0  0
   30.2036   37.3453   63.0202 C   0  0  0  0  0  0  0  0  0  0  0  0
   29.3621   37.0021   61.9603 C   0  0  0  0  0  0  0  0  0  0  0  0
   29.8105   36.1582   60.9684 C   0  0  0  0  0  0  0  0  0  0  0  0
   31.0993   35.6326   61.0199 C   0  0  0  0  0  0  0  0  0  0  0  0
   31.6560   34.5485   59.7474 S   0  0  0  0  0  0  0  0  0  0  0  0
   32.3436   35.7207   58.6260 C   0  0  0  0  0  0  0  0  0  0  0  0
   32.3673   37.0173   58.8127 N   0  0  0  0  0  0  0  0  0  0  0  0
   32.9746   37.6193   57.7574 C   0  0  0  0  0  0  0  0  0  0  0  0
   33.2546   38.9519   57.4433 C   0  0  0  0  0  0  0  0  0  0  0  0
   33.8937   39.2563   56.2624 C   0  0  0  0  0  0  0  0  0  0  0  0
   34.2569   38.2505   55.3789 C   0  0  0  0  0  0  0  0  0  0  0  0
   33.9833   36.9303   55.6718 C   0  0  0  0  0  0  0  0  0  0  0  0
   33.3407   36.6052   56.8568 C   0  0  0  0  0  0  0  0  0  0  0  0
   32.9326   35.4133   57.4320 N   0  0  0  0  0  0  0  0  0  0  0  0
   33.0440   34.5257   57.0571 H   0  0  0  0  0  0  0  0  0  0  0  0
   31.9496   35.9639   62.0675 C   0  0  0  0  0  0  0  0  0  0  0  0
   31.5112   36.8197   63.0730 C   0  0  0  0  0  0  0  0  0  0  0  0
   32.3825   37.1647   64.1556 C   0  0  0  0  0  0  0  0  0  0  0  0
   33.0739   37.4383   65.0145 N   0  0  0  0  0  0  0  0  0  0  0  0
   28.3601   37.4023   61.9159 H   0  0  0  0  0  0  0  0  0  0  0  0
   29.1576   35.8994   60.1480 H   0  0  0  0  0  0  0  0  0  0  0  0
   32.9748   39.7399   58.1267 H   0  0  0  0  0  0  0  0  0  0  0  0
   34.1136   40.2859   56.0219 H   0  0  0  0  0  0  0  0  0  0  0  0
   34.7574   38.5024   54.4555 H   0  0  0  0  0  0  0  0  0  0  0  0
   34.2693   36.1519   54.9800 H   0  0  0  0  0  0  0  0  0  0  0  0
   32.9496   35.5572   62.1014 H   0  0  0  0  0  0  0  0  0  0  0  0
  1  2  3  0  0  0  0
  2  3  1  0  0  0  0
  3 19  2  0  0  0  0
  3  4  1  0  0  0  0
  4  5  2  0  0  0  0
  4 22  1  0  0  0  0
  5  6  1  0  0  0  0
  5 23  1  0  0  0  0
  6  7  1  0  0  0  0
  6 18  2  0  0  0  0
  7  8  1  0  0  0  0
  8 16  1  0  0  0  0
  8  9  2  0  0  0  0
  9 10  1  0  0  0  0
 10 15  2  0  0  0  0
 10 11  1  0  0  0  0
 11 12  2  0  0  0  0
 11 24  1  0  0  0  0
 12 13  1  0  0  0  0
 12 25  1  0  0  0  0
 13 14  2  0  0  0  0
 13 26  1  0  0  0  0
 14 15  1  0  0  0  0
 14 27  1  0  0  0  0
 15 16  1  0  0  0  0
 16 17  1  0  0  0  0
 18 19  1  0  0  0  0
 18 28  1  0  0  0  0
 19 20  1  0  0  0  0
 20 21  3  0  0  0  0
M  END
$$$$
