ZINC000000036151      none
 OpenBabel11202420153D

 39 42  0  0  0  0  0  0  0  0999 V2000
   33.8491   37.9679   55.6213 C   0  0  0  0  0  0  0  0  0  0  0  0
   33.4946   36.8942   56.4165 C   0  0  0  0  0  0  0  0  0  0  0  0
   33.0924   37.1041   57.7223 C   0  0  0  0  0  0  0  0  0  0  0  0
   33.0448   38.3878   58.2329 C   0  0  0  0  0  0  0  0  0  0  0  0
   32.6059   38.6167   59.6563 C   0  0  0  0  0  0  0  0  0  0  0  0
   31.1314   37.6249   59.9997 S   0  0  0  0  0  0  0  0  0  0  0  0
   30.8457   38.0729   61.6797 C   0  0  0  0  0  0  0  0  0  0  0  0
   30.6110   39.2833   62.1345 N   0  0  0  0  0  0  0  0  0  0  0  0
   30.4534   39.2556   63.4093 N   0  0  0  0  0  0  0  0  0  0  0  0
   30.5717   38.0222   63.8509 C   0  0  0  0  0  0  0  0  0  0  0  0
   30.4581   37.5785   65.2485 C   0  0  0  0  0  0  0  0  0  0  0  0
   31.2454   37.9851   66.2839 C   0  0  0  0  0  0  0  0  0  0  0  0
   30.7840   37.3128   67.4320 C   0  0  0  0  0  0  0  0  0  0  0  0
   29.7553   36.5316   67.0468 C   0  0  0  0  0  0  0  0  0  0  0  0
   29.5609   36.6942   65.7275 O   0  0  0  0  0  0  0  0  0  0  0  0
   30.8234   37.2243   62.7540 N   0  0  0  0  0  0  0  0  0  0  0  0
   31.0210   35.8367   62.7425 C   0  0  0  0  0  0  0  0  0  0  0  0
   30.0230   34.9882   63.2028 C   0  0  0  0  0  0  0  0  0  0  0  0
   30.2230   33.6216   63.1963 C   0  0  0  0  0  0  0  0  0  0  0  0
   31.4153   33.0982   62.7310 C   0  0  0  0  0  0  0  0  0  0  0  0
   32.4110   33.9407   62.2716 C   0  0  0  0  0  0  0  0  0  0  0  0
   32.2171   35.3082   62.2764 C   0  0  0  0  0  0  0  0  0  0  0  0
   33.3943   39.4620   57.4361 C   0  0  0  0  0  0  0  0  0  0  0  0
   33.8015   39.2517   56.1320 C   0  0  0  0  0  0  0  0  0  0  0  0
   34.1631   37.8039   54.6010 H   0  0  0  0  0  0  0  0  0  0  0  0
   33.5315   35.8913   56.0174 H   0  0  0  0  0  0  0  0  0  0  0  0
   32.8150   36.2653   58.3434 H   0  0  0  0  0  0  0  0  0  0  0  0
   32.3754   39.6724   59.8001 H   0  0  0  0  0  0  0  0  0  0  0  0
   33.4069   38.3239   60.3350 H   0  0  0  0  0  0  0  0  0  0  0  0
   32.0634   38.6885   66.2340 H   0  0  0  0  0  0  0  0  0  0  0  0
   31.1817   37.4034   68.4321 H   0  0  0  0  0  0  0  0  0  0  0  0
   29.1824   35.8823   67.6921 H   0  0  0  0  0  0  0  0  0  0  0  0
   29.0914   35.3964   63.5664 H   0  0  0  0  0  0  0  0  0  0  0  0
   29.4473   32.9612   63.5548 H   0  0  0  0  0  0  0  0  0  0  0  0
   31.5694   32.0292   62.7267 H   0  0  0  0  0  0  0  0  0  0  0  0
   33.3413   33.5289   61.9091 H   0  0  0  0  0  0  0  0  0  0  0  0
   32.9951   35.9657   61.9175 H   0  0  0  0  0  0  0  0  0  0  0  0
   33.3529   40.4653   57.8337 H   0  0  0  0  0  0  0  0  0  0  0  0
   34.0782   40.0906   55.5107 H   0  0  0  0  0  0  0  0  0  0  0  0
  1 24  2  0  0  0  0
  1  2  1  0  0  0  0
  1 25  1  0  0  0  0
  2  3  2  0  0  0  0
  2 26  1  0  0  0  0
  3  4  1  0  0  0  0
  3 27  1  0  0  0  0
  4  5  1  0  0  0  0
  4 23  2  0  0  0  0
  5  6  1  0  0  0  0
  5 28  1  0  0  0  0
  5 29  1  0  0  0  0
  6  7  1  0  0  0  0
  7 16  1  0  0  0  0
  7  8  2  0  0  0  0
  8  9  1  0  0  0  0
  9 10  2  0  0  0  0
 10 11  1  0  0  0  0
 10 16  1  0  0  0  0
 11 15  1  0  0  0  0
 11 12  2  0  0  0  0
 12 13  1  0  0  0  0
 12 30  1  0  0  0  0
 13 14  2  0  0  0  0
 13 31  1  0  0  0  0
 14 15  1  0  0  0  0
 14 32  1  0  0  0  0
 16 17  1  0  0  0  0
 17 22  2  0  0  0  0
 17 18  1  0  0  0  0
 18 19  2  0  0  0  0
 18 33  1  0  0  0  0
 19 20  1  0  0  0  0
 19 34  1  0  0  0  0
 20 21  2  0  0  0  0
 20 35  1  0  0  0  0
 21 22  1  0  0  0  0
 21 36  1  0  0  0  0
 22 37  1  0  0  0  0
 23 24  1  0  0  0  0
 23 38  1  0  0  0  0
 24 39  1  0  0  0  0
M  END
$$$$
