ZINC000000009341      none
 OpenBabel11202420153D

 38 40  0  0  1  0  0  0  0  0999 V2000
   33.4805   36.9327   65.6020 C   0  0  0  0  0  0  0  0  0  0  0  0
   32.0147   36.6360   65.7876 C   0  0  0  0  0  0  0  0  0  0  0  0
   31.4686   36.7636   66.9792 N   0  0  0  0  0  0  0  0  0  0  0  0
   30.1914   36.5096   67.1911 C   0  0  0  0  0  0  0  0  0  0  0  0
   29.3637   36.1013   66.1604 C   0  0  0  0  0  0  0  0  0  0  0  0
   29.8875   35.9575   64.8879 C   0  0  0  0  0  0  0  0  0  0  0  0
   31.2466   36.2340   64.6944 C   0  0  0  0  0  0  0  0  0  0  0  0
   31.8584   36.0964   63.3558 C   0  0  0  0  0  0  0  0  0  0  0  0
   32.8008   36.7977   63.0433 O   0  0  0  0  0  0  0  0  0  0  0  0
   31.3714   35.1935   62.4817 N   0  0  0  0  0  0  0  0  0  0  0  0
   31.9778   35.0571   61.1550 C   0  0  1  0  0  0  0  0  0  0  0  0
   33.0272   34.7810   61.2577 H   0  0  0  0  0  0  0  0  0  0  0  0
   31.2355   33.9803   60.3552 C   0  0  0  0  0  0  0  0  0  0  0  0
   32.0298   33.6915   59.0831 C   0  0  0  0  0  0  0  0  0  0  0  0
   32.3462   34.9716   58.3549 C   0  0  0  0  0  0  0  0  0  0  0  0
   32.7203   34.8811   57.0201 C   0  0  0  0  0  0  0  0  0  0  0  0
   33.0270   36.0167   56.2996 C   0  0  0  0  0  0  0  0  0  0  0  0
   32.9630   37.2555   56.9103 C   0  0  0  0  0  0  0  0  0  0  0  0
   32.5905   37.3475   58.2352 C   0  0  0  0  0  0  0  0  0  0  0  0
   32.2779   36.2054   58.9616 C   0  0  0  0  0  0  0  0  0  0  0  0
   31.8655   36.3800   60.3999 C   0  0  0  0  0  0  0  0  0  0  0  0
   33.6014   37.9541   65.2410 H   0  0  0  0  0  0  0  0  0  0  0  0
   33.9974   36.8207   66.5551 H   0  0  0  0  0  0  0  0  0  0  0  0
   33.9027   36.2383   64.8757 H   0  0  0  0  0  0  0  0  0  0  0  0
   29.7851   36.6227   68.1854 H   0  0  0  0  0  0  0  0  0  0  0  0
   28.3200   35.8965   66.3471 H   0  0  0  0  0  0  0  0  0  0  0  0
   29.2642   35.6405   64.0648 H   0  0  0  0  0  0  0  0  0  0  0  0
   30.6194   34.6339   62.7311 H   0  0  0  0  0  0  0  0  0  0  0  0
   30.2399   34.3380   60.0931 H   0  0  0  0  0  0  0  0  0  0  0  0
   31.1544   33.0715   60.9515 H   0  0  0  0  0  0  0  0  0  0  0  0
   31.4428   33.0434   58.4321 H   0  0  0  0  0  0  0  0  0  0  0  0
   32.9602   33.1885   59.3465 H   0  0  0  0  0  0  0  0  0  0  0  0
   32.7711   33.9138   56.5426 H   0  0  0  0  0  0  0  0  0  0  0  0
   33.3157   35.9384   55.2619 H   0  0  0  0  0  0  0  0  0  0  0  0
   33.2034   38.1480   56.3518 H   0  0  0  0  0  0  0  0  0  0  0  0
   32.5411   38.3155   58.7116 H   0  0  0  0  0  0  0  0  0  0  0  0
   32.5123   37.1195   60.8720 H   0  0  0  0  0  0  0  0  0  0  0  0
   30.8335   36.7286   60.4381 H   0  0  0  0  0  0  0  0  0  0  0  0
  1  2  1  0  0  0  0
  1 22  1  0  0  0  0
  1 23  1  0  0  0  0
  1 24  1  0  0  0  0
  2  7  2  0  0  0  0
  2  3  1  0  0  0  0
  3  4  2  0  0  0  0
  4  5  1  0  0  0  0
  4 25  1  0  0  0  0
  5  6  2  0  0  0  0
  5 26  1  0  0  0  0
  6  7  1  0  0  0  0
  6 27  1  0  0  0  0
  7  8  1  0  0  0  0
  8  9  2  0  0  0  0
  8 10  1  0  0  0  0
 10 11  1  0  0  0  0
 10 28  1  0  0  0  0
 11 12  1  1  0  0  0
 11 21  1  0  0  0  0
 11 13  1  0  0  0  0
 13 14  1  0  0  0  0
 13 29  1  0  0  0  0
 13 30  1  0  0  0  0
 14 15  1  0  0  0  0
 14 31  1  0  0  0  0
 14 32  1  0  0  0  0
 15 20  2  0  0  0  0
 15 16  1  0  0  0  0
 16 17  2  0  0  0  0
 16 33  1  0  0  0  0
 17 18  1  0  0  0  0
 17 34  1  0  0  0  0
 18 19  2  0  0  0  0
 18 35  1  0  0  0  0
 19 20  1  0  0  0  0
 19 36  1  0  0  0  0
 20 21  1  0  0  0  0
 21 37  1  0  0  0  0
 21 38  1  0  0  0  0
M  END
$$$$
