ZINC000000056323      none
 OpenBabel11202420153D

 40 42  0  0  0  0  0  0  0  0999 V2000
   30.7049   35.8507   66.2829 O   0  0  0  0  0  0  0  0  0  0  0  0
   30.5768   35.9685   65.0826 C   0  0  0  0  0  0  0  0  0  0  0  0
   29.6695   35.2197   64.4251 N   0  0  0  0  0  0  0  0  0  0  0  0
   28.8746   34.3058   65.1276 C   0  0  0  0  0  0  0  0  0  0  0  0
   28.9278   32.9539   64.8150 C   0  0  0  0  0  0  0  0  0  0  0  0
   28.1432   32.0542   65.5095 C   0  0  0  0  0  0  0  0  0  0  0  0
   27.2997   32.5000   66.5132 C   0  0  0  0  0  0  0  0  0  0  0  0
   26.5289   31.6190   67.1875 F   0  0  0  0  0  0  0  0  0  0  0  0
   27.2494   33.8470   66.8303 C   0  0  0  0  0  0  0  0  0  0  0  0
   28.0324   34.7501   66.1382 C   0  0  0  0  0  0  0  0  0  0  0  0
   31.4322   36.9522   64.3265 C   0  0  0  0  0  0  0  0  0  0  0  0
   31.6587   36.4495   62.9240 C   0  0  0  0  0  0  0  0  0  0  0  0
   32.2865   35.2353   62.7178 C   0  0  0  0  0  0  0  0  0  0  0  0
   32.4904   34.7722   61.4314 C   0  0  0  0  0  0  0  0  0  0  0  0
   32.0747   35.5276   60.3509 C   0  0  0  0  0  0  0  0  0  0  0  0
   31.4516   36.7442   60.5569 C   0  0  0  0  0  0  0  0  0  0  0  0
   31.2439   37.2053   61.8435 C   0  0  0  0  0  0  0  0  0  0  0  0
   32.7796   37.1119   65.0374 C   0  0  0  0  0  0  0  0  0  0  0  0
   32.5424   37.6976   66.4340 C   0  0  0  0  0  0  0  0  0  0  0  0
   31.8564   38.9457   66.3166 O   0  0  0  0  0  0  0  0  0  0  0  0
   30.5704   38.8490   65.7009 C   0  0  0  0  0  0  0  0  0  0  0  0
   30.7275   38.3113   64.2762 C   0  0  0  0  0  0  0  0  0  0  0  0
   29.5671   35.3139   63.4651 H   0  0  0  0  0  0  0  0  0  0  0  0
   29.5820   32.6064   64.0291 H   0  0  0  0  0  0  0  0  0  0  0  0
   28.1844   31.0026   65.2667 H   0  0  0  0  0  0  0  0  0  0  0  0
   26.5941   34.1922   67.6163 H   0  0  0  0  0  0  0  0  0  0  0  0
   27.9893   35.8012   66.3826 H   0  0  0  0  0  0  0  0  0  0  0  0
   32.6146   34.6468   63.5619 H   0  0  0  0  0  0  0  0  0  0  0  0
   32.9768   33.8215   61.2706 H   0  0  0  0  0  0  0  0  0  0  0  0
   32.2364   35.1670   59.3458 H   0  0  0  0  0  0  0  0  0  0  0  0
   31.1268   37.3343   59.7127 H   0  0  0  0  0  0  0  0  0  0  0  0
   30.7571   38.1558   62.0043 H   0  0  0  0  0  0  0  0  0  0  0  0
   33.2626   36.1388   65.1254 H   0  0  0  0  0  0  0  0  0  0  0  0
   33.4165   37.7853   64.4638 H   0  0  0  0  0  0  0  0  0  0  0  0
   33.5006   37.8547   66.9294 H   0  0  0  0  0  0  0  0  0  0  0  0
   31.9391   37.0049   67.0207 H   0  0  0  0  0  0  0  0  0  0  0  0
   30.1079   39.8355   65.6682 H   0  0  0  0  0  0  0  0  0  0  0  0
   29.9410   38.1714   66.2778 H   0  0  0  0  0  0  0  0  0  0  0  0
   31.3230   39.0088   63.6872 H   0  0  0  0  0  0  0  0  0  0  0  0
   29.7443   38.1951   63.8202 H   0  0  0  0  0  0  0  0  0  0  0  0
  1  2  2  0  0  0  0
  2  3  1  0  0  0  0
  2 11  1  0  0  0  0
  3  4  1  0  0  0  0
  3 23  1  0  0  0  0
  4 10  2  0  0  0  0
  4  5  1  0  0  0  0
  5  6  2  0  0  0  0
  5 24  1  0  0  0  0
  6  7  1  0  0  0  0
  6 25  1  0  0  0  0
  7  8  1  0  0  0  0
  7  9  2  0  0  0  0
  9 10  1  0  0  0  0
  9 26  1  0  0  0  0
 10 27  1  0  0  0  0
 11 22  1  0  0  0  0
 11 12  1  0  0  0  0
 11 18  1  0  0  0  0
 12 17  2  0  0  0  0
 12 13  1  0  0  0  0
 13 14  2  0  0  0  0
 13 28  1  0  0  0  0
 14 15  1  0  0  0  0
 14 29  1  0  0  0  0
 15 16  2  0  0  0  0
 15 30  1  0  0  0  0
 16 17  1  0  0  0  0
 16 31  1  0  0  0  0
 17 32  1  0  0  0  0
 18 19  1  0  0  0  0
 18 33  1  0  0  0  0
 18 34  1  0  0  0  0
 19 20  1  0  0  0  0
 19 35  1  0  0  0  0
 19 36  1  0  0  0  0
 20 21  1  0  0  0  0
 21 22  1  0  0  0  0
 21 37  1  0  0  0  0
 21 38  1  0  0  0  0
 22 39  1  0  0  0  0
 22 40  1  0  0  0  0
M  END
$$$$
