ZINC000000032299      none
 OpenBabel11202420153D

 46 48  0  0  1  0  0  0  0  0999 V2000
   27.0452   35.0501   68.3837 C   0  0  0  0  0  0  0  0  0  0  0  0
   27.5868   34.8004   67.0851 O   0  0  0  0  0  0  0  0  0  0  0  0
   28.3438   35.7853   66.5320 C   0  0  0  0  0  0  0  0  0  0  0  0
   28.5594   36.9666   67.2269 C   0  0  0  0  0  0  0  0  0  0  0  0
   29.3284   37.9696   66.6676 C   0  0  0  0  0  0  0  0  0  0  0  0
   29.8861   37.7978   65.4110 C   0  0  0  0  0  0  0  0  0  0  0  0
   30.6424   38.7858   64.8611 O   0  0  0  0  0  0  0  0  0  0  0  0
   30.8208   39.9736   65.6354 C   0  0  0  0  0  0  0  0  0  0  0  0
   29.6714   36.6134   64.7113 C   0  0  0  0  0  0  0  0  0  0  0  0
   30.2349   36.4370   63.4382 N   0  0  0  0  0  0  0  0  0  0  0  0
   31.0973   35.4523   63.1576 C   0  0  0  0  0  0  0  0  0  0  0  0
   31.4878   34.6158   63.9434 O   0  0  0  0  0  0  0  0  0  0  0  0
   31.5049   35.5468   61.7035 C   0  0  0  0  0  0  0  0  0  0  0  0
   30.7278   36.7757   61.1893 C   0  0  2  0  0  0  0  0  0  0  0  0
   30.0444   36.4906   60.3895 H   0  0  0  0  0  0  0  0  0  0  0  0
   31.6907   37.8640   60.7102 C   0  0  0  0  0  0  0  0  0  0  0  0
   32.1236   37.5654   59.2980 C   0  0  0  0  0  0  0  0  0  0  0  0
   32.1980   36.2563   58.8600 C   0  0  0  0  0  0  0  0  0  0  0  0
   32.5906   35.9827   57.5631 C   0  0  0  0  0  0  0  0  0  0  0  0
   32.9183   37.0176   56.7072 C   0  0  0  0  0  0  0  0  0  0  0  0
   33.3513   36.7189   55.2950 C   0  0  0  0  0  0  0  0  0  0  0  0
   32.8495   38.3263   57.1470 C   0  0  0  0  0  0  0  0  0  0  0  0
   32.4519   38.6002   58.4423 C   0  0  0  0  0  0  0  0  0  0  0  0
   29.9586   37.2432   62.4056 C   0  0  0  0  0  0  0  0  0  0  0  0
   29.2108   38.1968   62.4398 O   0  0  0  0  0  0  0  0  0  0  0  0
   28.8995   35.6083   65.2746 C   0  0  0  0  0  0  0  0  0  0  0  0
   26.4009   35.9283   68.3458 H   0  0  0  0  0  0  0  0  0  0  0  0
   26.4639   34.1866   68.7070 H   0  0  0  0  0  0  0  0  0  0  0  0
   27.8578   35.2256   69.0886 H   0  0  0  0  0  0  0  0  0  0  0  0
   28.1257   37.1026   68.2065 H   0  0  0  0  0  0  0  0  0  0  0  0
   29.4983   38.8864   67.2125 H   0  0  0  0  0  0  0  0  0  0  0  0
   29.8494   40.4257   65.8361 H   0  0  0  0  0  0  0  0  0  0  0  0
   31.3067   39.7231   66.5783 H   0  0  0  0  0  0  0  0  0  0  0  0
   31.4421   40.6780   65.0823 H   0  0  0  0  0  0  0  0  0  0  0  0
   31.2081   34.6501   61.1593 H   0  0  0  0  0  0  0  0  0  0  0  0
   32.5793   35.7085   61.6169 H   0  0  0  0  0  0  0  0  0  0  0  0
   31.1893   38.8315   60.7397 H   0  0  0  0  0  0  0  0  0  0  0  0
   32.5648   37.8878   61.3609 H   0  0  0  0  0  0  0  0  0  0  0  0
   31.9459   35.4476   59.5300 H   0  0  0  0  0  0  0  0  0  0  0  0
   32.6447   34.9602   57.2197 H   0  0  0  0  0  0  0  0  0  0  0  0
   34.4337   36.5939   55.2655 H   0  0  0  0  0  0  0  0  0  0  0  0
   32.8703   35.8023   54.9537 H   0  0  0  0  0  0  0  0  0  0  0  0
   33.0631   37.5446   54.6444 H   0  0  0  0  0  0  0  0  0  0  0  0
   33.1059   39.1348   56.4784 H   0  0  0  0  0  0  0  0  0  0  0  0
   32.3981   39.6227   58.7858 H   0  0  0  0  0  0  0  0  0  0  0  0
   28.7317   34.6884   64.7341 H   0  0  0  0  0  0  0  0  0  0  0  0
  1  2  1  0  0  0  0
  1 27  1  0  0  0  0
  1 28  1  0  0  0  0
  1 29  1  0  0  0  0
  2  3  1  0  0  0  0
  3 26  2  0  0  0  0
  3  4  1  0  0  0  0
  4  5  2  0  0  0  0
  4 30  1  0  0  0  0
  5  6  1  0  0  0  0
  5 31  1  0  0  0  0
  6  7  1  0  0  0  0
  6  9  2  0  0  0  0
  7  8  1  0  0  0  0
  8 32  1  0  0  0  0
  8 33  1  0  0  0  0
  8 34  1  0  0  0  0
  9 10  1  0  0  0  0
  9 26  1  0  0  0  0
 10 24  1  0  0  0  0
 10 11  1  0  0  0  0
 11 12  2  0  0  0  0
 11 13  1  0  0  0  0
 13 14  1  0  0  0  0
 13 35  1  0  0  0  0
 13 36  1  0  0  0  0
 14 15  1  6  0  0  0
 14 16  1  0  0  0  0
 14 24  1  0  0  0  0
 16 17  1  0  0  0  0
 16 37  1  0  0  0  0
 16 38  1  0  0  0  0
 17 23  2  0  0  0  0
 17 18  1  0  0  0  0
 18 19  2  0  0  0  0
 18 39  1  0  0  0  0
 19 20  1  0  0  0  0
 19 40  1  0  0  0  0
 20 21  1  0  0  0  0
 20 22  2  0  0  0  0
 21 41  1  0  0  0  0
 21 42  1  0  0  0  0
 21 43  1  0  0  0  0
 22 23  1  0  0  0  0
 22 44  1  0  0  0  0
 23 45  1  0  0  0  0
 24 25  2  0  0  0  0
 26 46  1  0  0  0  0
M  END
$$$$
