ZINC000000037576      none
 OpenBabel11202420153D

 35 37  0  0  0  0  0  0  0  0999 V2000
   29.1095   37.3339   64.2426 O   0  0  0  0  0  0  0  0  0  0  0  0
   30.3055   37.4415   64.0456 C   0  0  0  0  0  0  0  0  0  0  0  0
   31.1373   38.2040   64.9825 C   0  0  0  0  0  0  0  0  0  0  0  0
   30.9946   39.5271   65.2882 C   0  0  0  0  0  0  0  0  0  0  0  0
   31.9954   39.8355   66.2228 C   0  0  0  0  0  0  0  0  0  0  0  0
   32.7012   38.7033   66.4378 C   0  0  0  0  0  0  0  0  0  0  0  0
   32.1812   37.7225   65.6886 O   0  0  0  0  0  0  0  0  0  0  0  0
   30.8658   36.8600   62.9666 N   0  0  0  0  0  0  0  0  0  0  0  0
   30.0512   36.0857   62.0178 C   0  0  0  0  0  0  0  0  0  0  0  0
   30.3397   36.6040   60.5999 C   0  0  0  0  0  0  0  0  0  0  0  0
   31.7873   36.5614   60.3537 N   0  0  0  0  0  0  0  0  0  0  0  0
   32.0780   36.8663   59.0202 C   0  0  0  0  0  0  0  0  0  0  0  0
   31.7080   38.0952   58.4909 C   0  0  0  0  0  0  0  0  0  0  0  0
   32.0021   38.3961   57.1750 C   0  0  0  0  0  0  0  0  0  0  0  0
   32.6533   37.4691   56.3803 C   0  0  0  0  0  0  0  0  0  0  0  0
   33.0188   36.2427   56.9015 C   0  0  0  0  0  0  0  0  0  0  0  0
   32.7332   35.9370   58.2194 C   0  0  0  0  0  0  0  0  0  0  0  0
   33.0907   34.7377   58.7286 F   0  0  0  0  0  0  0  0  0  0  0  0
   32.5098   37.4560   61.2678 C   0  0  0  0  0  0  0  0  0  0  0  0
   32.3093   36.9777   62.7098 C   0  0  0  0  0  0  0  0  0  0  0  0
   30.2537   40.2045   64.8899 H   0  0  0  0  0  0  0  0  0  0  0  0
   32.1707   40.7976   66.6812 H   0  0  0  0  0  0  0  0  0  0  0  0
   33.5456   38.6056   67.1040 H   0  0  0  0  0  0  0  0  0  0  0  0
   30.3144   35.0301   62.0858 H   0  0  0  0  0  0  0  0  0  0  0  0
   28.9944   36.2181   62.2496 H   0  0  0  0  0  0  0  0  0  0  0  0
   29.9847   37.6303   60.5055 H   0  0  0  0  0  0  0  0  0  0  0  0
   29.8282   35.9739   59.8723 H   0  0  0  0  0  0  0  0  0  0  0  0
   31.1948   38.8173   59.1087 H   0  0  0  0  0  0  0  0  0  0  0  0
   31.7183   39.3539   56.7646 H   0  0  0  0  0  0  0  0  0  0  0  0
   32.8783   37.7075   55.3512 H   0  0  0  0  0  0  0  0  0  0  0  0
   33.5276   35.5219   56.2784 H   0  0  0  0  0  0  0  0  0  0  0  0
   32.1247   38.4704   61.1642 H   0  0  0  0  0  0  0  0  0  0  0  0
   33.5724   37.4433   61.0249 H   0  0  0  0  0  0  0  0  0  0  0  0
   32.7461   37.7001   63.3993 H   0  0  0  0  0  0  0  0  0  0  0  0
   32.7858   36.0069   62.8463 H   0  0  0  0  0  0  0  0  0  0  0  0
  1  2  2  0  0  0  0
  2  3  1  0  0  0  0
  2  8  1  0  0  0  0
  3  7  1  0  0  0  0
  3  4  2  0  0  0  0
  4  5  1  0  0  0  0
  4 21  1  0  0  0  0
  5  6  2  0  0  0  0
  5 22  1  0  0  0  0
  6  7  1  0  0  0  0
  6 23  1  0  0  0  0
  8 20  1  0  0  0  0
  8  9  1  0  0  0  0
  9 10  1  0  0  0  0
  9 24  1  0  0  0  0
  9 25  1  0  0  0  0
 10 11  1  0  0  0  0
 10 26  1  0  0  0  0
 10 27  1  0  0  0  0
 11 12  1  0  0  0  0
 11 19  1  0  0  0  0
 12 17  2  0  0  0  0
 12 13  1  0  0  0  0
 13 14  2  0  0  0  0
 13 28  1  0  0  0  0
 14 15  1  0  0  0  0
 14 29  1  0  0  0  0
 15 16  2  0  0  0  0
 15 30  1  0  0  0  0
 16 17  1  0  0  0  0
 16 31  1  0  0  0  0
 17 18  1  0  0  0  0
 19 20  1  0  0  0  0
 19 32  1  0  0  0  0
 19 33  1  0  0  0  0
 20 34  1  0  0  0  0
 20 35  1  0  0  0  0
M  END
$$$$
