ZINC000000037538      none
 OpenBabel11202420153D

 28 29  0  0  0  0  0  0  0  0999 V2000
   31.3455   35.4906   61.1452 C   0  0  0  0  0  0  0  0  0  0  0  0
   31.9554   36.4459   60.1518 C   0  0  0  0  0  0  0  0  0  0  0  0
   32.2175   37.7479   60.5307 C   0  0  0  0  0  0  0  0  0  0  0  0
   32.7799   38.6229   59.6116 C   0  0  0  0  0  0  0  0  0  0  0  0
   33.0543   38.1561   58.3380 C   0  0  0  0  0  0  0  0  0  0  0  0
   32.7689   36.8315   58.0272 C   0  0  0  0  0  0  0  0  0  0  0  0
   33.0447   36.3472   56.7504 N   0  0  0  0  0  0  0  0  0  0  0  0
   32.7654   35.0654   56.4409 C   0  0  0  0  0  0  0  0  0  0  0  0
   32.2729   34.3321   57.2759 O   0  0  0  0  0  0  0  0  0  0  0  0
   33.0578   34.5520   55.0869 C   0  0  0  0  0  0  0  0  0  0  0  0
   32.4587   35.1379   53.9699 C   0  0  0  0  0  0  0  0  0  0  0  0
   32.7360   34.6538   52.7089 C   0  0  0  0  0  0  0  0  0  0  0  0
   33.6060   33.5892   52.5478 C   0  0  0  0  0  0  0  0  0  0  0  0
   34.2031   33.0032   53.6485 C   0  0  0  0  0  0  0  0  0  0  0  0
   33.9396   33.4816   54.9174 C   0  0  0  0  0  0  0  0  0  0  0  0
   34.6962   32.7503   56.2982 Cl  0  0  0  0  0  0  0  0  0  0  0  0
   32.2325   36.0275   58.9320 N   0  0  0  0  0  0  0  0  0  0  0  0
   30.2588   35.5394   61.0760 H   0  0  0  0  0  0  0  0  0  0  0  0
   31.6785   34.4763   60.9255 H   0  0  0  0  0  0  0  0  0  0  0  0
   31.6580   35.7655   62.1526 H   0  0  0  0  0  0  0  0  0  0  0  0
   31.9870   38.0819   61.5316 H   0  0  0  0  0  0  0  0  0  0  0  0
   32.9941   39.6462   59.8828 H   0  0  0  0  0  0  0  0  0  0  0  0
   33.4880   38.8109   57.5968 H   0  0  0  0  0  0  0  0  0  0  0  0
   33.4377   36.9324   56.0842 H   0  0  0  0  0  0  0  0  0  0  0  0
   31.7798   35.9689   54.0933 H   0  0  0  0  0  0  0  0  0  0  0  0
   32.2727   35.1063   51.8444 H   0  0  0  0  0  0  0  0  0  0  0  0
   33.8188   33.2139   51.5578 H   0  0  0  0  0  0  0  0  0  0  0  0
   34.8807   32.1727   53.5157 H   0  0  0  0  0  0  0  0  0  0  0  0
  1  2  1  0  0  0  0
  1 18  1  0  0  0  0
  1 19  1  0  0  0  0
  1 20  1  0  0  0  0
  2 17  2  0  0  0  0
  2  3  1  0  0  0  0
  3  4  2  0  0  0  0
  3 21  1  0  0  0  0
  4  5  1  0  0  0  0
  4 22  1  0  0  0  0
  5  6  2  0  0  0  0
  5 23  1  0  0  0  0
  6  7  1  0  0  0  0
  6 17  1  0  0  0  0
  7  8  1  0  0  0  0
  7 24  1  0  0  0  0
  8  9  2  0  0  0  0
  8 10  1  0  0  0  0
 10 15  2  0  0  0  0
 10 11  1  0  0  0  0
 11 12  2  0  0  0  0
 11 25  1  0  0  0  0
 12 13  1  0  0  0  0
 12 26  1  0  0  0  0
 13 14  2  0  0  0  0
 13 27  1  0  0  0  0
 14 15  1  0  0  0  0
 14 28  1  0  0  0  0
 15 16  1  0  0  0  0
M  END
$$$$
