ZINC000000033566      none
 OpenBabel11202420153D

 24 24  0  0  0  0  0  0  0  0999 V2000
   33.2469   39.2962   58.0419 C   0  0  0  0  0  0  0  0  0  0  0  0
   33.1436   37.9067   57.4678 C   0  0  0  0  0  0  0  0  0  0  0  0
   33.5305   37.6638   56.1465 C   0  0  0  0  0  0  0  0  0  0  0  0
   33.4290   36.4017   55.6492 C   0  0  0  0  0  0  0  0  0  0  0  0
   33.8372   36.1065   54.2290 C   0  0  0  0  0  0  0  0  0  0  0  0
   32.9548   35.4107   56.4486 N   0  0  0  0  0  0  0  0  0  0  0  0
   32.8386   34.0456   55.9298 C   0  0  0  0  0  0  0  0  0  0  0  0
   34.1408   33.2870   56.1945 C   0  0  0  0  0  0  0  0  0  0  0  0
   35.2222   33.9545   55.5411 O   0  0  0  0  0  0  0  0  0  0  0  0
   32.5861   35.6820   57.7146 C   0  0  0  0  0  0  0  0  0  0  0  0
   32.1571   34.7850   58.4209 O   0  0  0  0  0  0  0  0  0  0  0  0
   32.6886   36.9176   58.2100 N   0  0  0  0  0  0  0  0  0  0  0  0
   32.3156   39.8335   57.8631 H   0  0  0  0  0  0  0  0  0  0  0  0
   33.4300   39.2335   59.1146 H   0  0  0  0  0  0  0  0  0  0  0  0
   34.0701   39.8268   57.5634 H   0  0  0  0  0  0  0  0  0  0  0  0
   33.9052   38.4669   55.5293 H   0  0  0  0  0  0  0  0  0  0  0  0
   32.9792   36.2374   53.5696 H   0  0  0  0  0  0  0  0  0  0  0  0
   34.6327   36.7891   53.9301 H   0  0  0  0  0  0  0  0  0  0  0  0
   34.1952   35.0792   54.1599 H   0  0  0  0  0  0  0  0  0  0  0  0
   32.6494   34.0794   54.8569 H   0  0  0  0  0  0  0  0  0  0  0  0
   32.0137   33.5364   56.4284 H   0  0  0  0  0  0  0  0  0  0  0  0
   34.3298   33.2531   57.2674 H   0  0  0  0  0  0  0  0  0  0  0  0
   34.0544   32.2713   55.8085 H   0  0  0  0  0  0  0  0  0  0  0  0
   35.3578   34.8655   55.8359 H   0  0  0  0  0  0  0  0  0  0  0  0
  1  2  1  0  0  0  0
  1 13  1  0  0  0  0
  1 14  1  0  0  0  0
  1 15  1  0  0  0  0
  2 12  2  0  0  0  0
  2  3  1  0  0  0  0
  3  4  2  0  0  0  0
  3 16  1  0  0  0  0
  4  5  1  0  0  0  0
  4  6  1  0  0  0  0
  5 17  1  0  0  0  0
  5 18  1  0  0  0  0
  5 19  1  0  0  0  0
  6  7  1  0  0  0  0
  6 10  1  0  0  0  0
  7  8  1  0  0  0  0
  7 20  1  0  0  0  0
  7 21  1  0  0  0  0
  8  9  1  0  0  0  0
  8 22  1  0  0  0  0
  8 23  1  0  0  0  0
  9 24  1  0  0  0  0
 10 11  2  0  0  0  0
 10 12  1  0  0  0  0
M  END
$$$$
