ZINC000000057802      none
 OpenBabel11202420153D

 35 37  0  0  0  0  0  0  0  0999 V2000
   29.5366   38.5703   65.1691 C   0  0  0  0  0  0  0  0  0  0  0  0
   30.1423   37.2785   65.0913 O   0  0  0  0  0  0  0  0  0  0  0  0
   30.5941   36.8809   63.8719 C   0  0  0  0  0  0  0  0  0  0  0  0
   29.7522   36.1900   63.0133 C   0  0  0  0  0  0  0  0  0  0  0  0
   30.2084   35.7797   61.7775 C   0  0  0  0  0  0  0  0  0  0  0  0
   31.5151   36.0688   61.3849 C   0  0  0  0  0  0  0  0  0  0  0  0
   32.0041   35.6338   60.0558 C   0  0  0  0  0  0  0  0  0  0  0  0
   32.4368   36.5539   59.1392 C   0  0  0  0  0  0  0  0  0  0  0  0
   32.9136   36.0694   57.8428 C   0  0  0  0  0  0  0  0  0  0  0  0
   33.3714   36.9690   56.8717 C   0  0  0  0  0  0  0  0  0  0  0  0
   33.8092   36.5009   55.6653 C   0  0  0  0  0  0  0  0  0  0  0  0
   33.8030   35.1400   55.3947 C   0  0  0  0  0  0  0  0  0  0  0  0
   33.3568   34.2377   56.3371 C   0  0  0  0  0  0  0  0  0  0  0  0
   32.9064   34.6900   57.5722 C   0  0  0  0  0  0  0  0  0  0  0  0
   32.4678   33.8108   58.4980 O   0  0  0  0  0  0  0  0  0  0  0  0
   32.0263   34.2121   59.6999 C   0  0  0  0  0  0  0  0  0  0  0  0
   31.6396   33.3849   60.5047 O   0  0  0  0  0  0  0  0  0  0  0  0
   32.3622   36.7637   62.2478 C   0  0  0  0  0  0  0  0  0  0  0  0
   31.9016   37.1680   63.4877 C   0  0  0  0  0  0  0  0  0  0  0  0
   32.7250   37.8461   64.3312 O   0  0  0  0  0  0  0  0  0  0  0  0
   33.5082   37.0678   65.2384 C   0  0  0  0  0  0  0  0  0  0  0  0
   28.6694   38.6054   64.5097 H   0  0  0  0  0  0  0  0  0  0  0  0
   29.2213   38.7626   66.1946 H   0  0  0  0  0  0  0  0  0  0  0  0
   30.2571   39.3285   64.8622 H   0  0  0  0  0  0  0  0  0  0  0  0
   28.7390   35.9686   63.3146 H   0  0  0  0  0  0  0  0  0  0  0  0
   29.5522   35.2378   61.1124 H   0  0  0  0  0  0  0  0  0  0  0  0
   32.4299   37.6094   59.3679 H   0  0  0  0  0  0  0  0  0  0  0  0
   33.3786   38.0294   57.0761 H   0  0  0  0  0  0  0  0  0  0  0  0
   34.1620   37.1950   54.9169 H   0  0  0  0  0  0  0  0  0  0  0  0
   34.1516   34.7840   54.4365 H   0  0  0  0  0  0  0  0  0  0  0  0
   33.3573   33.1805   56.1161 H   0  0  0  0  0  0  0  0  0  0  0  0
   33.3761   36.9853   61.9486 H   0  0  0  0  0  0  0  0  0  0  0  0
   34.1187   37.7302   65.8521 H   0  0  0  0  0  0  0  0  0  0  0  0
   32.8479   36.4841   65.8799 H   0  0  0  0  0  0  0  0  0  0  0  0
   34.1552   36.3953   64.6753 H   0  0  0  0  0  0  0  0  0  0  0  0
  1  2  1  0  0  0  0
  1 22  1  0  0  0  0
  1 23  1  0  0  0  0
  1 24  1  0  0  0  0
  2  3  1  0  0  0  0
  3 19  2  0  0  0  0
  3  4  1  0  0  0  0
  4  5  2  0  0  0  0
  4 25  1  0  0  0  0
  5  6  1  0  0  0  0
  5 26  1  0  0  0  0
  6  7  1  0  0  0  0
  6 18  2  0  0  0  0
  7 16  1  0  0  0  0
  7  8  2  0  0  0  0
  8  9  1  0  0  0  0
  8 27  1  0  0  0  0
  9 14  2  0  0  0  0
  9 10  1  0  0  0  0
 10 11  2  0  0  0  0
 10 28  1  0  0  0  0
 11 12  1  0  0  0  0
 11 29  1  0  0  0  0
 12 13  2  0  0  0  0
 12 30  1  0  0  0  0
 13 14  1  0  0  0  0
 13 31  1  0  0  0  0
 14 15  1  0  0  0  0
 15 16  1  0  0  0  0
 16 17  2  0  0  0  0
 18 19  1  0  0  0  0
 18 32  1  0  0  0  0
 19 20  1  0  0  0  0
 20 21  1  0  0  0  0
 21 33  1  0  0  0  0
 21 34  1  0  0  0  0
 21 35  1  0  0  0  0
M  END
$$$$
