ZINC000000050628      none
 OpenBabel11202420153D

 36 38  0  0  0  0  0  0  0  0999 V2000
   33.2952   36.1347   52.4546 C   0  0  0  0  0  0  0  0  0  0  0  0
   33.7877   37.1018   53.5003 C   0  0  0  0  0  0  0  0  0  0  0  0
   33.3489   37.1618   54.7096 N   0  0  0  0  0  0  0  0  0  0  0  0
   33.8907   38.0734   55.5044 C   0  0  0  0  0  0  0  0  0  0  0  0
   33.4835   38.2552   56.9194 C   0  0  0  0  0  0  0  0  0  0  0  0
   33.5624   39.5142   57.5131 C   0  0  0  0  0  0  0  0  0  0  0  0
   33.1832   39.6819   58.8297 C   0  0  0  0  0  0  0  0  0  0  0  0
   32.7245   38.6044   59.5639 C   0  0  0  0  0  0  0  0  0  0  0  0
   32.6420   37.3458   58.9803 C   0  0  0  0  0  0  0  0  0  0  0  0
   32.1776   36.2593   59.7252 N   0  0  0  0  0  0  0  0  0  0  0  0
   30.6525   36.2886   60.3697 S   0  0  0  0  0  0  0  0  0  0  0  0
   29.9019   37.2034   59.5831 O   0  0  0  0  0  0  0  0  0  0  0  0
   30.2715   34.9329   60.5606 O   0  0  0  0  0  0  0  0  0  0  0  0
   30.7788   37.0008   61.9764 C   0  0  0  0  0  0  0  0  0  0  0  0
   30.9998   36.1923   63.0756 C   0  0  0  0  0  0  0  0  0  0  0  0
   31.1037   36.7516   64.3353 C   0  0  0  0  0  0  0  0  0  0  0  0
   30.9762   38.1185   64.4975 C   0  0  0  0  0  0  0  0  0  0  0  0
   30.7500   38.9266   63.3989 C   0  0  0  0  0  0  0  0  0  0  0  0
   30.6513   38.3678   62.1383 C   0  0  0  0  0  0  0  0  0  0  0  0
   33.0161   37.1701   57.6561 C   0  0  0  0  0  0  0  0  0  0  0  0
   34.8406   38.8248   54.9120 C   0  0  0  0  0  0  0  0  0  0  0  0
   35.0064   38.2729   53.2472 S   0  0  0  0  0  0  0  0  0  0  0  0
   32.4632   36.5810   51.9100 H   0  0  0  0  0  0  0  0  0  0  0  0
   34.1040   35.9075   51.7601 H   0  0  0  0  0  0  0  0  0  0  0  0
   32.9621   35.2160   52.9375 H   0  0  0  0  0  0  0  0  0  0  0  0
   33.9206   40.3585   56.9428 H   0  0  0  0  0  0  0  0  0  0  0  0
   33.2448   40.6582   59.2876 H   0  0  0  0  0  0  0  0  0  0  0  0
   32.4291   38.7409   60.5937 H   0  0  0  0  0  0  0  0  0  0  0  0
   32.7484   35.4875   59.8648 H   0  0  0  0  0  0  0  0  0  0  0  0
   31.0949   35.1237   62.9495 H   0  0  0  0  0  0  0  0  0  0  0  0
   31.2800   36.1202   65.1936 H   0  0  0  0  0  0  0  0  0  0  0  0
   31.0530   38.5551   65.4823 H   0  0  0  0  0  0  0  0  0  0  0  0
   30.6501   39.9945   63.5255 H   0  0  0  0  0  0  0  0  0  0  0  0
   30.4743   38.9991   61.2803 H   0  0  0  0  0  0  0  0  0  0  0  0
   32.9487   36.1940   57.1991 H   0  0  0  0  0  0  0  0  0  0  0  0
   35.4017   39.6223   55.3763 H   0  0  0  0  0  0  0  0  0  0  0  0
  1  2  1  0  0  0  0
  1 23  1  0  0  0  0
  1 24  1  0  0  0  0
  1 25  1  0  0  0  0
  2 22  1  0  0  0  0
  2  3  2  0  0  0  0
  3  4  1  0  0  0  0
  4  5  1  0  0  0  0
  4 21  2  0  0  0  0
  5 20  2  0  0  0  0
  5  6  1  0  0  0  0
  6  7  2  0  0  0  0
  6 26  1  0  0  0  0
  7  8  1  0  0  0  0
  7 27  1  0  0  0  0
  8  9  2  0  0  0  0
  8 28  1  0  0  0  0
  9 10  1  0  0  0  0
  9 20  1  0  0  0  0
 10 11  1  0  0  0  0
 10 29  1  0  0  0  0
 11 12  2  0  0  0  0
 11 13  2  0  0  0  0
 11 14  1  0  0  0  0
 14 19  2  0  0  0  0
 14 15  1  0  0  0  0
 15 16  2  0  0  0  0
 15 30  1  0  0  0  0
 16 17  1  0  0  0  0
 16 31  1  0  0  0  0
 17 18  2  0  0  0  0
 17 32  1  0  0  0  0
 18 19  1  0  0  0  0
 18 33  1  0  0  0  0
 19 34  1  0  0  0  0
 20 35  1  0  0  0  0
 21 22  1  0  0  0  0
 21 36  1  0  0  0  0
M  END
$$$$
