ZINC000000019626      none
 OpenBabel11202420153D

 35 37  0  0  0  0  0  0  0  0999 V2000
   31.1439   37.0561   64.4065 N   0  0  0  0  0  0  0  0  0  0  0  0
   31.4652   36.7587   63.0839 C   0  0  0  0  0  0  0  0  0  0  0  0
   31.8425   35.4659   62.7352 C   0  0  0  0  0  0  0  0  0  0  0  0
   32.1556   35.1666   61.4283 C   0  0  0  0  0  0  0  0  0  0  0  0
   32.1050   36.1660   60.4518 C   0  0  0  0  0  0  0  0  0  0  0  0
   32.4454   35.8495   59.0526 C   0  0  0  0  0  0  0  0  0  0  0  0
   32.2117   34.5905   58.5906 C   0  0  0  0  0  0  0  0  0  0  0  0
   32.5264   34.2706   57.2497 C   0  0  0  0  0  0  0  0  0  0  0  0
   32.3254   33.1539   56.8003 O   0  0  0  0  0  0  0  0  0  0  0  0
   33.1061   35.3386   56.4158 C   0  0  0  0  0  0  0  0  0  0  0  0
   33.4480   35.1121   55.0769 C   0  0  0  0  0  0  0  0  0  0  0  0
   33.2442   33.8590   54.5014 N   0  0  0  0  0  0  0  0  0  0  0  0
   33.9912   36.1468   54.3276 C   0  0  0  0  0  0  0  0  0  0  0  0
   34.3246   35.9394   53.0349 F   0  0  0  0  0  0  0  0  0  0  0  0
   34.1919   37.3917   54.9018 C   0  0  0  0  0  0  0  0  0  0  0  0
   34.7815   38.5064   54.0768 C   0  0  0  0  0  0  0  0  0  0  0  0
   36.2056   38.4844   54.1947 O   0  0  0  0  0  0  0  0  0  0  0  0
   33.8570   37.6228   56.2229 C   0  0  0  0  0  0  0  0  0  0  0  0
   34.0595   38.8429   56.7666 F   0  0  0  0  0  0  0  0  0  0  0  0
   33.3122   36.6021   56.9925 C   0  0  0  0  0  0  0  0  0  0  0  0
   32.9788   36.8123   58.2844 O   0  0  0  0  0  0  0  0  0  0  0  0
   31.7256   37.4649   60.8040 C   0  0  0  0  0  0  0  0  0  0  0  0
   31.4083   37.7568   62.1131 C   0  0  0  0  0  0  0  0  0  0  0  0
   31.0414   39.0112   62.4553 F   0  0  0  0  0  0  0  0  0  0  0  0
   30.8810   37.9574   64.6509 H   0  0  0  0  0  0  0  0  0  0  0  0
   31.1832   36.3623   65.0831 H   0  0  0  0  0  0  0  0  0  0  0  0
   31.8855   34.6946   63.4901 H   0  0  0  0  0  0  0  0  0  0  0  0
   32.4437   34.1614   61.1582 H   0  0  0  0  0  0  0  0  0  0  0  0
   31.7850   33.8425   59.2423 H   0  0  0  0  0  0  0  0  0  0  0  0
   32.9967   33.1043   55.0581 H   0  0  0  0  0  0  0  0  0  0  0  0
   33.3498   33.7419   53.5444 H   0  0  0  0  0  0  0  0  0  0  0  0
   34.5014   38.3724   53.0319 H   0  0  0  0  0  0  0  0  0  0  0  0
   34.4019   39.4634   54.4349 H   0  0  0  0  0  0  0  0  0  0  0  0
   36.6126   37.6605   53.8935 H   0  0  0  0  0  0  0  0  0  0  0  0
   31.6809   38.2382   60.0514 H   0  0  0  0  0  0  0  0  0  0  0  0
  1  2  1  0  0  0  0
  1 25  1  0  0  0  0
  1 26  1  0  0  0  0
  2 23  2  0  0  0  0
  2  3  1  0  0  0  0
  3  4  2  0  0  0  0
  3 27  1  0  0  0  0
  4  5  1  0  0  0  0
  4 28  1  0  0  0  0
  5  6  1  0  0  0  0
  5 22  2  0  0  0  0
  6 21  1  0  0  0  0
  6  7  2  0  0  0  0
  7  8  1  0  0  0  0
  7 29  1  0  0  0  0
  8  9  2  0  0  0  0
  8 10  1  0  0  0  0
 10 20  2  0  0  0  0
 10 11  1  0  0  0  0
 11 12  1  0  0  0  0
 11 13  2  0  0  0  0
 12 30  1  0  0  0  0
 12 31  1  0  0  0  0
 13 14  1  0  0  0  0
 13 15  1  0  0  0  0
 15 16  1  0  0  0  0
 15 18  2  0  0  0  0
 16 17  1  0  0  0  0
 16 32  1  0  0  0  0
 16 33  1  0  0  0  0
 17 34  1  0  0  0  0
 18 19  1  0  0  0  0
 18 20  1  0  0  0  0
 20 21  1  0  0  0  0
 22 23  1  0  0  0  0
 22 35  1  0  0  0  0
 23 24  1  0  0  0  0
M  END
$$$$
