ZINC000000025513      none
 OpenBabel11202420153D

 36 38  0  0  0  0  0  0  0  0999 V2000
   32.8188   37.7665   66.9162 C   0  0  0  0  0  0  0  0  0  0  0  0
   32.0972   36.7569   66.0612 C   0  0  0  0  0  0  0  0  0  0  0  0
   31.5149   35.8284   66.5804 O   0  0  0  0  0  0  0  0  0  0  0  0
   32.0989   36.8859   64.7197 N   0  0  0  0  0  0  0  0  0  0  0  0
   31.3976   35.9044   63.8885 C   0  0  0  0  0  0  0  0  0  0  0  0
   31.5476   36.2640   62.4764 N   0  0  0  0  0  0  0  0  0  0  0  0
   31.8526   35.3861   61.5078 C   0  0  0  0  0  0  0  0  0  0  0  0
   31.9055   36.0919   60.3313 C   0  0  0  0  0  0  0  0  0  0  0  0
   32.2047   35.5816   58.9720 C   0  0  0  0  0  0  0  0  0  0  0  0
   32.8191   36.4127   58.0348 C   0  0  0  0  0  0  0  0  0  0  0  0
   33.0974   35.9397   56.7721 C   0  0  0  0  0  0  0  0  0  0  0  0
   32.7639   34.6273   56.4293 C   0  0  0  0  0  0  0  0  0  0  0  0
   33.0617   34.1189   55.0743 C   0  0  0  0  0  0  0  0  0  0  0  0
   33.3380   32.8352   54.7676 C   0  0  0  0  0  0  0  0  0  0  0  0
   33.5830   32.6021   53.4299 C   0  0  0  0  0  0  0  0  0  0  0  0
   33.5146   33.6813   52.6455 C   0  0  0  0  0  0  0  0  0  0  0  0
   33.1097   35.0941   53.6113 S   0  0  0  0  0  0  0  0  0  0  0  0
   32.1437   33.7976   57.3663 C   0  0  0  0  0  0  0  0  0  0  0  0
   31.8713   34.2706   58.6304 C   0  0  0  0  0  0  0  0  0  0  0  0
   31.6126   37.4273   60.7217 C   0  0  0  0  0  0  0  0  0  0  0  0
   31.5533   38.4080   59.9995 O   0  0  0  0  0  0  0  0  0  0  0  0
   31.4119   37.3862   62.0478 O   0  0  0  0  0  0  0  0  0  0  0  0
   33.2785   38.5211   66.2777 H   0  0  0  0  0  0  0  0  0  0  0  0
   32.1089   38.2450   67.5909 H   0  0  0  0  0  0  0  0  0  0  0  0
   33.5912   37.2639   67.4985 H   0  0  0  0  0  0  0  0  0  0  0  0
   32.5647   37.6286   64.3044 H   0  0  0  0  0  0  0  0  0  0  0  0
   30.3397   35.8958   64.1509 H   0  0  0  0  0  0  0  0  0  0  0  0
   31.8219   34.9148   64.0585 H   0  0  0  0  0  0  0  0  0  0  0  0
   32.0232   34.3267   61.6305 H   0  0  0  0  0  0  0  0  0  0  0  0
   33.0768   37.4275   58.3001 H   0  0  0  0  0  0  0  0  0  0  0  0
   33.5729   36.5833   56.0469 H   0  0  0  0  0  0  0  0  0  0  0  0
   33.3656   32.0516   55.5103 H   0  0  0  0  0  0  0  0  0  0  0  0
   33.8175   31.6201   53.0460 H   0  0  0  0  0  0  0  0  0  0  0  0
   33.6812   33.6853   51.5784 H   0  0  0  0  0  0  0  0  0  0  0  0
   31.8814   32.7842   57.1006 H   0  0  0  0  0  0  0  0  0  0  0  0
   31.3958   33.6278   59.3564 H   0  0  0  0  0  0  0  0  0  0  0  0
  1  2  1  0  0  0  0
  1 23  1  0  0  0  0
  1 24  1  0  0  0  0
  1 25  1  0  0  0  0
  2  3  2  0  0  0  0
  2  4  1  0  0  0  0
  4  5  1  0  0  0  0
  4 26  1  0  0  0  0
  5  6  1  0  0  0  0
  5 27  1  0  0  0  0
  5 28  1  0  0  0  0
  6 22  1  0  0  0  0
  6  7  1  0  0  0  0
  7  8  2  0  0  0  0
  7 29  1  0  0  0  0
  8  9  1  0  0  0  0
  8 20  1  0  0  0  0
  9 19  2  0  0  0  0
  9 10  1  0  0  0  0
 10 11  2  0  0  0  0
 10 30  1  0  0  0  0
 11 12  1  0  0  0  0
 11 31  1  0  0  0  0
 12 13  1  0  0  0  0
 12 18  2  0  0  0  0
 13 17  1  0  0  0  0
 13 14  2  0  0  0  0
 14 15  1  0  0  0  0
 14 32  1  0  0  0  0
 15 16  2  0  0  0  0
 15 33  1  0  0  0  0
 16 17  1  0  0  0  0
 16 34  1  0  0  0  0
 18 19  1  0  0  0  0
 18 35  1  0  0  0  0
 19 36  1  0  0  0  0
 20 21  2  0  0  0  0
 20 22  1  0  0  0  0
M  END
$$$$
