ZINC000000042417      none
 OpenBabel11202420153D

 41 42  0  0  0  0  0  0  0  0999 V2000
   31.4212   33.5847   58.6917 C   0  0  0  0  0  0  0  0  0  0  0  0
   32.1887   34.5672   57.9933 O   0  0  0  0  0  0  0  0  0  0  0  0
   32.2516   35.8084   58.5454 C   0  0  0  0  0  0  0  0  0  0  0  0
   31.5861   36.0734   59.7260 C   0  0  0  0  0  0  0  0  0  0  0  0
   31.6568   37.3508   60.2934 C   0  0  0  0  0  0  0  0  0  0  0  0
   30.9544   37.6381   61.5524 C   0  0  0  0  0  0  0  0  0  0  0  0
   30.5120   38.8420   61.7927 N   0  0  0  0  0  0  0  0  0  0  0  0
   29.8591   39.1089   62.9630 C   0  0  0  0  0  0  0  0  0  0  0  0
   28.6286   39.5442   63.0746 N   0  0  0  0  0  0  0  0  0  0  0  0
   28.3441   39.6878   64.4549 O   0  0  0  0  0  0  0  0  0  0  0  0
   29.5015   39.3046   65.1756 N   0  0  0  0  0  0  0  0  0  0  0  0
   30.4137   38.9513   64.3148 C   0  0  0  0  0  0  0  0  0  0  0  0
   31.6968   38.5043   64.6232 N   0  0  0  0  0  0  0  0  0  0  0  0
   32.0857   38.4078   65.9100 C   0  0  0  0  0  0  0  0  0  0  0  0
   33.4735   37.9241   66.2435 C   0  0  0  0  0  0  0  0  0  0  0  0
   31.3189   38.7102   66.7995 O   0  0  0  0  0  0  0  0  0  0  0  0
   32.3930   38.3556   59.6555 C   0  0  0  0  0  0  0  0  0  0  0  0
   33.0498   38.0839   58.4756 C   0  0  0  0  0  0  0  0  0  0  0  0
   32.9834   36.8147   57.9161 C   0  0  0  0  0  0  0  0  0  0  0  0
   33.6329   36.5529   56.7523 O   0  0  0  0  0  0  0  0  0  0  0  0
   33.2561   37.3261   55.6110 C   0  0  0  0  0  0  0  0  0  0  0  0
   34.4714   38.0993   55.0951 C   0  0  0  0  0  0  0  0  0  0  0  0
   32.7400   36.3951   54.5121 C   0  0  0  0  0  0  0  0  0  0  0  0
   31.4538   32.6422   58.1452 H   0  0  0  0  0  0  0  0  0  0  0  0
   30.3878   33.9217   58.7734 H   0  0  0  0  0  0  0  0  0  0  0  0
   31.8364   33.4409   59.6892 H   0  0  0  0  0  0  0  0  0  0  0  0
   31.0156   35.2958   60.2122 H   0  0  0  0  0  0  0  0  0  0  0  0
   30.8045   36.8528   62.2784 H   0  0  0  0  0  0  0  0  0  0  0  0
   32.3102   38.2623   63.9118 H   0  0  0  0  0  0  0  0  0  0  0  0
   34.0121   37.7019   65.3223 H   0  0  0  0  0  0  0  0  0  0  0  0
   34.0047   38.6982   66.7973 H   0  0  0  0  0  0  0  0  0  0  0  0
   33.4075   37.0224   66.8523 H   0  0  0  0  0  0  0  0  0  0  0  0
   32.4463   39.3436   60.0883 H   0  0  0  0  0  0  0  0  0  0  0  0
   33.6176   38.8601   57.9842 H   0  0  0  0  0  0  0  0  0  0  0  0
   32.4708   38.0282   55.8910 H   0  0  0  0  0  0  0  0  0  0  0  0
   35.2567   37.3972   54.8152 H   0  0  0  0  0  0  0  0  0  0  0  0
   34.1841   38.6890   54.2247 H   0  0  0  0  0  0  0  0  0  0  0  0
   34.8392   38.7625   55.8781 H   0  0  0  0  0  0  0  0  0  0  0  0
   33.5253   35.6929   54.2323 H   0  0  0  0  0  0  0  0  0  0  0  0
   31.8742   35.8441   54.8797 H   0  0  0  0  0  0  0  0  0  0  0  0
   32.4527   36.9847   53.6416 H   0  0  0  0  0  0  0  0  0  0  0  0
  1  2  1  0  0  0  0
  1 24  1  0  0  0  0
  1 25  1  0  0  0  0
  1 26  1  0  0  0  0
  2  3  1  0  0  0  0
  3 19  2  0  0  0  0
  3  4  1  0  0  0  0
  4  5  2  0  0  0  0
  4 27  1  0  0  0  0
  5  6  1  0  0  0  0
  5 17  1  0  0  0  0
  6  7  2  0  0  0  0
  6 28  1  0  0  0  0
  7  8  1  0  0  0  0
  8 12  1  0  0  0  0
  8  9  2  0  0  0  0
  9 10  1  0  0  0  0
 10 11  1  0  0  0  0
 11 12  2  0  0  0  0
 12 13  1  0  0  0  0
 13 14  1  0  0  0  0
 13 29  1  0  0  0  0
 14 15  1  0  0  0  0
 14 16  2  0  0  0  0
 15 30  1  0  0  0  0
 15 31  1  0  0  0  0
 15 32  1  0  0  0  0
 17 18  2  0  0  0  0
 17 33  1  0  0  0  0
 18 19  1  0  0  0  0
 18 34  1  0  0  0  0
 19 20  1  0  0  0  0
 20 21  1  0  0  0  0
 21 22  1  0  0  0  0
 21 23  1  0  0  0  0
 21 35  1  0  0  0  0
 22 36  1  0  0  0  0
 22 37  1  0  0  0  0
 22 38  1  0  0  0  0
 23 39  1  0  0  0  0
 23 40  1  0  0  0  0
 23 41  1  0  0  0  0
M  END
$$$$
