ZINC000000035024      none
 OpenBabel11202420153D

 34 36  0  0  0  0  0  0  0  0999 V2000
   32.2244   36.1011   55.6252 O   0  0  0  0  0  0  0  0  0  0  0  0
   32.7565   35.2151   54.9903 C   0  0  0  0  0  0  0  0  0  0  0  0
   32.3050   33.7878   55.1639 C   0  0  0  0  0  0  0  0  0  0  0  0
   31.8082   33.5954   56.5286 N   0  0  0  0  0  0  0  0  0  0  0  0
   30.7255   32.9760   56.8464 N   0  0  0  0  0  0  0  0  0  0  0  0
   30.5963   32.9899   58.1297 N   0  0  0  0  0  0  0  0  0  0  0  0
   31.6459   33.6587   58.6280 C   0  0  0  0  0  0  0  0  0  0  0  0
   31.9238   33.9327   60.0602 C   0  0  0  0  0  0  0  0  0  0  0  0
   32.6796   33.0343   60.8101 C   0  0  0  0  0  0  0  0  0  0  0  0
   32.9303   33.2909   62.1427 C   0  0  0  0  0  0  0  0  0  0  0  0
   32.4372   34.4406   62.7336 C   0  0  0  0  0  0  0  0  0  0  0  0
   31.6912   35.3392   61.9935 C   0  0  0  0  0  0  0  0  0  0  0  0
   31.4344   35.0927   60.6583 C   0  0  0  0  0  0  0  0  0  0  0  0
   30.4982   36.2219   59.7296 Cl  0  0  0  0  0  0  0  0  0  0  0  0
   32.3863   34.0204   57.5991 N   0  0  0  0  0  0  0  0  0  0  0  0
   33.7517   35.5071   54.1296 N   0  0  0  0  0  0  0  0  0  0  0  0
   34.1719   36.8343   53.9683 C   0  0  0  0  0  0  0  0  0  0  0  0
   34.0701   37.7288   55.0246 C   0  0  0  0  0  0  0  0  0  0  0  0
   34.4905   39.0352   54.8658 C   0  0  0  0  0  0  0  0  0  0  0  0
   35.0024   39.4568   53.6501 C   0  0  0  0  0  0  0  0  0  0  0  0
   35.4078   40.7363   53.4964 F   0  0  0  0  0  0  0  0  0  0  0  0
   35.0997   38.5690   52.5921 C   0  0  0  0  0  0  0  0  0  0  0  0
   34.6859   37.2585   52.7482 C   0  0  0  0  0  0  0  0  0  0  0  0
   34.7808   36.3919   51.7161 F   0  0  0  0  0  0  0  0  0  0  0  0
   33.1451   33.1167   54.9849 H   0  0  0  0  0  0  0  0  0  0  0  0
   31.5080   33.5699   54.4529 H   0  0  0  0  0  0  0  0  0  0  0  0
   33.0654   32.1364   60.3504 H   0  0  0  0  0  0  0  0  0  0  0  0
   33.5124   32.5926   62.7257 H   0  0  0  0  0  0  0  0  0  0  0  0
   32.6359   34.6372   63.7768 H   0  0  0  0  0  0  0  0  0  0  0  0
   31.3090   36.2354   62.4596 H   0  0  0  0  0  0  0  0  0  0  0  0
   34.1773   34.7985   53.6218 H   0  0  0  0  0  0  0  0  0  0  0  0
   33.6670   37.4024   55.9719 H   0  0  0  0  0  0  0  0  0  0  0  0
   34.4152   39.7298   55.6894 H   0  0  0  0  0  0  0  0  0  0  0  0
   35.4992   38.8999   51.6449 H   0  0  0  0  0  0  0  0  0  0  0  0
  1  2  2  0  0  0  0
  2  3  1  0  0  0  0
  2 16  1  0  0  0  0
  3  4  1  0  0  0  0
  3 25  1  0  0  0  0
  3 26  1  0  0  0  0
  4 15  1  0  0  0  0
  4  5  1  0  0  0  0
  5  6  2  0  0  0  0
  6  7  1  0  0  0  0
  7  8  1  0  0  0  0
  7 15  2  0  0  0  0
  8 13  2  0  0  0  0
  8  9  1  0  0  0  0
  9 10  2  0  0  0  0
  9 27  1  0  0  0  0
 10 11  1  0  0  0  0
 10 28  1  0  0  0  0
 11 12  2  0  0  0  0
 11 29  1  0  0  0  0
 12 13  1  0  0  0  0
 12 30  1  0  0  0  0
 13 14  1  0  0  0  0
 16 17  1  0  0  0  0
 16 31  1  0  0  0  0
 17 23  2  0  0  0  0
 17 18  1  0  0  0  0
 18 19  2  0  0  0  0
 18 32  1  0  0  0  0
 19 20  1  0  0  0  0
 19 33  1  0  0  0  0
 20 21  1  0  0  0  0
 20 22  2  0  0  0  0
 22 23  1  0  0  0  0
 22 34  1  0  0  0  0
 23 24  1  0  0  0  0
M  END
$$$$
