ZINC000000015464      none
 OpenBabel11202420153D

 26 28  0  0  0  0  0  0  0  0999 V2000
   31.6428   38.4677   62.3290 O   0  0  0  0  0  0  0  0  0  0  0  0
   31.9635   38.1083   61.2104 C   0  0  0  0  0  0  0  0  0  0  0  0
   32.4134   39.0023   60.3064 N   0  0  0  0  0  0  0  0  0  0  0  0
   32.4781   39.9366   60.5592 H   0  0  0  0  0  0  0  0  0  0  0  0
   32.7886   38.6211   59.0178 N   0  0  0  0  0  0  0  0  0  0  0  0
   32.7287   37.3806   58.6056 C   0  0  0  0  0  0  0  0  0  0  0  0
   33.1467   37.0353   57.2270 C   0  0  0  0  0  0  0  0  0  0  0  0
   33.5984   38.0377   56.3696 C   0  0  0  0  0  0  0  0  0  0  0  0
   33.9899   37.6988   55.0864 C   0  0  0  0  0  0  0  0  0  0  0  0
   33.9073   36.3688   54.6978 C   0  0  0  0  0  0  0  0  0  0  0  0
   33.4448   35.4266   55.5981 C   0  0  0  0  0  0  0  0  0  0  0  0
   33.0831   35.7748   56.8160 N   0  0  0  0  0  0  0  0  0  0  0  0
   32.2513   36.3297   59.5159 C   0  0  0  0  0  0  0  0  0  0  0  0
   32.1714   34.9954   59.1199 C   0  0  0  0  0  0  0  0  0  0  0  0
   31.7177   34.0476   60.0105 C   0  0  0  0  0  0  0  0  0  0  0  0
   31.3390   34.4068   61.2975 C   0  0  0  0  0  0  0  0  0  0  0  0
   31.4103   35.7190   61.7103 C   0  0  0  0  0  0  0  0  0  0  0  0
   31.8666   36.6944   60.8248 C   0  0  0  0  0  0  0  0  0  0  0  0
   33.6460   39.0637   56.7037 H   0  0  0  0  0  0  0  0  0  0  0  0
   34.3482   38.4527   54.4012 H   0  0  0  0  0  0  0  0  0  0  0  0
   34.2010   36.0727   53.7017 H   0  0  0  0  0  0  0  0  0  0  0  0
   33.3791   34.3910   55.2986 H   0  0  0  0  0  0  0  0  0  0  0  0
   32.4629   34.7068   58.1208 H   0  0  0  0  0  0  0  0  0  0  0  0
   31.6556   33.0138   59.7045 H   0  0  0  0  0  0  0  0  0  0  0  0
   30.9855   33.6495   61.9816 H   0  0  0  0  0  0  0  0  0  0  0  0
   31.1146   35.9903   62.7131 H   0  0  0  0  0  0  0  0  0  0  0  0
  1  2  2  0  0  0  0
  2 18  1  0  0  0  0
  2  3  1  0  0  0  0
  3  4  1  0  0  0  0
  3  5  1  0  0  0  0
  5  6  2  0  0  0  0
  6  7  1  0  0  0  0
  6 13  1  0  0  0  0
  7 12  2  0  0  0  0
  7  8  1  0  0  0  0
  8  9  2  0  0  0  0
  8 19  1  0  0  0  0
  9 10  1  0  0  0  0
  9 20  1  0  0  0  0
 10 11  2  0  0  0  0
 10 21  1  0  0  0  0
 11 12  1  0  0  0  0
 11 22  1  0  0  0  0
 13 18  2  0  0  0  0
 13 14  1  0  0  0  0
 14 15  2  0  0  0  0
 14 23  1  0  0  0  0
 15 16  1  0  0  0  0
 15 24  1  0  0  0  0
 16 17  2  0  0  0  0
 16 25  1  0  0  0  0
 17 18  1  0  0  0  0
 17 26  1  0  0  0  0
M  END
$$$$
