ZINC000000053436      none
 OpenBabel11202420153D

 40 42  0  0  0  0  0  0  0  0999 V2000
   30.7311   38.1318   64.7456 C   0  0  0  0  0  0  0  0  0  0  0  0
   30.7068   36.6231   64.4919 C   0  0  0  0  0  0  0  0  0  0  0  0
   29.2807   36.0988   64.6711 C   0  0  0  0  0  0  0  0  0  0  0  0
   31.6360   35.9238   65.4861 C   0  0  0  0  0  0  0  0  0  0  0  0
   31.1722   36.3424   63.0864 C   0  0  0  0  0  0  0  0  0  0  0  0
   31.2248   35.0556   62.6593 C   0  0  0  0  0  0  0  0  0  0  0  0
   31.6471   34.7386   61.3695 C   0  0  0  0  0  0  0  0  0  0  0  0
   31.6998   33.3042   60.9105 C   0  0  0  0  0  0  0  0  0  0  0  0
   31.2791   32.4666   61.9492 F   0  0  0  0  0  0  0  0  0  0  0  0
   30.8576   33.1366   59.8062 F   0  0  0  0  0  0  0  0  0  0  0  0
   33.0116   32.9776   60.5504 F   0  0  0  0  0  0  0  0  0  0  0  0
   32.0191   35.7688   60.5142 C   0  0  0  0  0  0  0  0  0  0  0  0
   32.4856   35.8470   59.1826 C   0  0  0  0  0  0  0  0  0  0  0  0
   32.6787   34.9101   58.4232 O   0  0  0  0  0  0  0  0  0  0  0  0
   32.6769   37.1547   58.9105 N   0  0  0  0  0  0  0  0  0  0  0  0
   33.1368   37.6625   57.6902 C   0  0  0  0  0  0  0  0  0  0  0  0
   33.2912   39.0324   57.5201 C   0  0  0  0  0  0  0  0  0  0  0  0
   33.7501   39.5299   56.3164 C   0  0  0  0  0  0  0  0  0  0  0  0
   34.0454   38.6666   55.2772 C   0  0  0  0  0  0  0  0  0  0  0  0
   33.8874   37.3025   55.4412 C   0  0  0  0  0  0  0  0  0  0  0  0
   33.4343   36.7980   56.6443 C   0  0  0  0  0  0  0  0  0  0  0  0
   32.3476   37.9272   60.0284 N   0  0  0  0  0  0  0  0  0  0  0  0
   31.9528   37.1555   61.0051 C   0  0  0  0  0  0  0  0  0  0  0  0
   31.5218   37.3784   62.2986 N   0  0  0  0  0  0  0  0  0  0  0  0
   31.4667   38.2847   62.6399 H   0  0  0  0  0  0  0  0  0  0  0  0
   30.0691   38.6299   64.0372 H   0  0  0  0  0  0  0  0  0  0  0  0
   30.3944   38.3348   65.7622 H   0  0  0  0  0  0  0  0  0  0  0  0
   31.7471   38.5054   64.6178 H   0  0  0  0  0  0  0  0  0  0  0  0
   29.2634   35.0240   64.4906 H   0  0  0  0  0  0  0  0  0  0  0  0
   28.9440   36.3018   65.6877 H   0  0  0  0  0  0  0  0  0  0  0  0
   28.6186   36.5969   63.9629 H   0  0  0  0  0  0  0  0  0  0  0  0
   32.6521   36.2975   65.3584 H   0  0  0  0  0  0  0  0  0  0  0  0
   31.2994   36.1269   66.5027 H   0  0  0  0  0  0  0  0  0  0  0  0
   31.6187   34.8491   65.3055 H   0  0  0  0  0  0  0  0  0  0  0  0
   30.9337   34.2620   63.3315 H   0  0  0  0  0  0  0  0  0  0  0  0
   33.0568   39.7075   58.3300 H   0  0  0  0  0  0  0  0  0  0  0  0
   33.8749   40.5946   56.1852 H   0  0  0  0  0  0  0  0  0  0  0  0
   34.4007   39.0584   54.3356 H   0  0  0  0  0  0  0  0  0  0  0  0
   34.1190   36.6310   54.6277 H   0  0  0  0  0  0  0  0  0  0  0  0
   33.3118   35.7326   56.7721 H   0  0  0  0  0  0  0  0  0  0  0  0
  1  2  1  0  0  0  0
  1 26  1  0  0  0  0
  1 27  1  0  0  0  0
  1 28  1  0  0  0  0
  2  3  1  0  0  0  0
  2  4  1  0  0  0  0
  2  5  1  0  0  0  0
  3 29  1  0  0  0  0
  3 30  1  0  0  0  0
  3 31  1  0  0  0  0
  4 32  1  0  0  0  0
  4 33  1  0  0  0  0
  4 34  1  0  0  0  0
  5 24  1  0  0  0  0
  5  6  2  0  0  0  0
  6  7  1  0  0  0  0
  6 35  1  0  0  0  0
  7  8  1  0  0  0  0
  7 12  2  0  0  0  0
  8  9  1  0  0  0  0
  8 10  1  0  0  0  0
  8 11  1  0  0  0  0
 12 23  1  0  0  0  0
 12 13  1  0  0  0  0
 13 14  2  0  0  0  0
 13 15  1  0  0  0  0
 15 16  1  0  0  0  0
 15 22  1  0  0  0  0
 16 21  2  0  0  0  0
 16 17  1  0  0  0  0
 17 18  2  0  0  0  0
 17 36  1  0  0  0  0
 18 19  1  0  0  0  0
 18 37  1  0  0  0  0
 19 20  2  0  0  0  0
 19 38  1  0  0  0  0
 20 21  1  0  0  0  0
 20 39  1  0  0  0  0
 21 40  1  0  0  0  0
 22 23  2  0  0  0  0
 23 24  1  0  0  0  0
 24 25  1  0  0  0  0
M  END
$$$$
