ZINC000000000521      none
 OpenBabel11202420153D

 28 29  0  0  1  0  0  0  0  0999 V2000
   32.4831   34.0867   60.7357 C   0  0  0  0  0  0  0  0  0  0  0  0
   31.3392   34.9384   60.1818 C   0  0  2  0  0  0  0  0  0  0  0  0
   30.7771   34.3597   59.4488 H   0  0  0  0  0  0  0  0  0  0  0  0
   31.9038   36.1705   59.5228 C   0  0  0  0  0  0  0  0  0  0  0  0
   32.0960   37.3230   60.2620 C   0  0  0  0  0  0  0  0  0  0  0  0
   32.6142   38.4534   59.6588 C   0  0  0  0  0  0  0  0  0  0  0  0
   32.9408   38.4322   58.3146 C   0  0  0  0  0  0  0  0  0  0  0  0
   33.5923   39.8516   57.5567 Cl  0  0  0  0  0  0  0  0  0  0  0  0
   32.7484   37.2782   57.5745 C   0  0  0  0  0  0  0  0  0  0  0  0
   33.1583   37.2498   55.8878 Cl  0  0  0  0  0  0  0  0  0  0  0  0
   32.2296   36.1476   58.1798 C   0  0  0  0  0  0  0  0  0  0  0  0
   30.4504   35.3343   61.2770 N   0  0  0  0  0  0  0  0  0  0  0  0
   30.6063   34.9958   62.6277 N   0  0  0  0  0  0  0  0  0  0  0  0
   31.3216   34.4583   63.0022 H   0  0  0  0  0  0  0  0  0  0  0  0
   29.5712   35.5609   63.3273 C   0  0  0  0  0  0  0  0  0  0  0  0
   29.3655   35.4656   64.6797 N   0  0  0  0  0  0  0  0  0  0  0  0
   28.7780   36.2307   62.4401 C   0  0  0  0  0  0  0  0  0  0  0  0
   29.3358   36.0832   61.1618 C   0  0  0  0  0  0  0  0  0  0  0  0
   28.8905   36.5506   60.1276 O   0  0  0  0  0  0  0  0  0  0  0  0
   33.1443   33.7921   59.9208 H   0  0  0  0  0  0  0  0  0  0  0  0
   33.0451   34.6654   61.4686 H   0  0  0  0  0  0  0  0  0  0  0  0
   32.0747   33.1955   61.2123 H   0  0  0  0  0  0  0  0  0  0  0  0
   31.8453   37.3386   61.3124 H   0  0  0  0  0  0  0  0  0  0  0  0
   32.7637   39.3534   60.2368 H   0  0  0  0  0  0  0  0  0  0  0  0
   32.0795   35.2468   57.6031 H   0  0  0  0  0  0  0  0  0  0  0  0
   28.5980   35.8983   65.0852 H   0  0  0  0  0  0  0  0  0  0  0  0
   29.9876   34.9654   65.2308 H   0  0  0  0  0  0  0  0  0  0  0  0
   27.8787   36.7782   62.6807 H   0  0  0  0  0  0  0  0  0  0  0  0
  1  2  1  0  0  0  0
  1 20  1  0  0  0  0
  1 21  1  0  0  0  0
  1 22  1  0  0  0  0
  2  3  1  6  0  0  0
  2  4  1  0  0  0  0
  2 12  1  0  0  0  0
  4 11  2  0  0  0  0
  4  5  1  0  0  0  0
  5  6  2  0  0  0  0
  5 23  1  0  0  0  0
  6  7  1  0  0  0  0
  6 24  1  0  0  0  0
  7  8  1  0  0  0  0
  7  9  2  0  0  0  0
  9 10  1  0  0  0  0
  9 11  1  0  0  0  0
 11 25  1  0  0  0  0
 12 18  1  0  0  0  0
 12 13  1  0  0  0  0
 13 14  1  0  0  0  0
 13 15  1  0  0  0  0
 15 16  1  0  0  0  0
 15 17  2  0  0  0  0
 16 26  1  0  0  0  0
 16 27  1  0  0  0  0
 17 18  1  0  0  0  0
 17 28  1  0  0  0  0
 18 19  2  0  0  0  0
M  END
$$$$
