ZINC000000034624      none
 OpenBabel11202420153D

 39 40  0  0  1  0  0  0  0  0999 V2000
   32.9052   34.8237   56.2668 C   0  0  0  0  0  0  0  0  0  0  0  0
   33.0330   36.1923   56.8844 C   0  0  0  0  0  0  0  0  0  0  0  0
   33.5320   37.2614   56.1405 C   0  0  0  0  0  0  0  0  0  0  0  0
   33.6447   38.4908   56.7052 C   0  0  0  0  0  0  0  0  0  0  0  0
   34.1861   39.6339   55.8859 C   0  0  0  0  0  0  0  0  0  0  0  0
   33.2792   38.7092   57.9909 N   0  0  0  0  0  0  0  0  0  0  0  0
   33.4177   40.0514   58.5614 C   0  0  0  0  0  0  0  0  0  0  0  0
   32.7856   37.7137   58.7514 C   0  0  0  0  0  0  0  0  0  0  0  0
   32.4571   37.9308   59.9049 O   0  0  0  0  0  0  0  0  0  0  0  0
   32.6549   36.4096   58.2078 C   0  0  0  0  0  0  0  0  0  0  0  0
   32.1242   35.3078   59.0250 C   0  0  0  0  0  0  0  0  0  0  0  0
   31.5095   34.4004   58.4973 O   0  0  0  0  0  0  0  0  0  0  0  0
   32.3192   35.3035   60.3587 N   0  0  0  0  0  0  0  0  0  0  0  0
   31.7906   34.2060   61.1726 C   0  0  0  0  0  0  0  0  0  0  0  0
   31.4597   34.7239   62.5737 C   0  0  2  0  0  0  0  0  0  0  0  0
   31.0648   33.9171   63.1911 H   0  0  0  0  0  0  0  0  0  0  0  0
   30.4395   35.8874   62.4923 C   0  0  0  0  0  0  0  0  0  0  0  0
   30.7426   36.6406   63.8178 C   0  0  0  0  0  0  0  0  0  0  0  0
   32.2650   36.4341   63.9693 C   0  0  0  0  0  0  0  0  0  0  0  0
   32.6289   35.2925   63.1843 O   0  0  0  0  0  0  0  0  0  0  0  0
   31.8885   34.6846   55.8990 H   0  0  0  0  0  0  0  0  0  0  0  0
   33.6071   34.7320   55.4379 H   0  0  0  0  0  0  0  0  0  0  0  0
   33.1273   34.0645   57.0166 H   0  0  0  0  0  0  0  0  0  0  0  0
   33.8298   37.1107   55.1134 H   0  0  0  0  0  0  0  0  0  0  0  0
   34.4266   39.2804   54.8833 H   0  0  0  0  0  0  0  0  0  0  0  0
   33.4365   40.4228   55.8230 H   0  0  0  0  0  0  0  0  0  0  0  0
   35.0867   40.0254   56.3589 H   0  0  0  0  0  0  0  0  0  0  0  0
   32.4995   40.6142   58.3931 H   0  0  0  0  0  0  0  0  0  0  0  0
   33.6048   39.9734   59.6324 H   0  0  0  0  0  0  0  0  0  0  0  0
   34.2516   40.5652   58.0833 H   0  0  0  0  0  0  0  0  0  0  0  0
   32.8094   36.0270   60.7795 H   0  0  0  0  0  0  0  0  0  0  0  0
   32.5368   33.4148   61.2446 H   0  0  0  0  0  0  0  0  0  0  0  0
   30.8866   33.8119   60.7081 H   0  0  0  0  0  0  0  0  0  0  0  0
   30.6352   36.5216   61.6278 H   0  0  0  0  0  0  0  0  0  0  0  0
   29.4161   35.5122   62.4776 H   0  0  0  0  0  0  0  0  0  0  0  0
   30.2050   36.1894   64.6519 H   0  0  0  0  0  0  0  0  0  0  0  0
   30.5018   37.6999   63.7275 H   0  0  0  0  0  0  0  0  0  0  0  0
   32.5118   36.2569   65.0160 H   0  0  0  0  0  0  0  0  0  0  0  0
   32.7954   37.3153   63.6084 H   0  0  0  0  0  0  0  0  0  0  0  0
  1  2  1  0  0  0  0
  1 21  1  0  0  0  0
  1 22  1  0  0  0  0
  1 23  1  0  0  0  0
  2 10  2  0  0  0  0
  2  3  1  0  0  0  0
  3  4  2  0  0  0  0
  3 24  1  0  0  0  0
  4  5  1  0  0  0  0
  4  6  1  0  0  0  0
  5 25  1  0  0  0  0
  5 26  1  0  0  0  0
  5 27  1  0  0  0  0
  6  7  1  0  0  0  0
  6  8  1  0  0  0  0
  7 28  1  0  0  0  0
  7 29  1  0  0  0  0
  7 30  1  0  0  0  0
  8  9  2  0  0  0  0
  8 10  1  0  0  0  0
 10 11  1  0  0  0  0
 11 12  2  0  0  0  0
 11 13  1  0  0  0  0
 13 14  1  0  0  0  0
 13 31  1  0  0  0  0
 14 15  1  0  0  0  0
 14 32  1  0  0  0  0
 14 33  1  0  0  0  0
 15 16  1  1  0  0  0
 15 20  1  0  0  0  0
 15 17  1  0  0  0  0
 17 18  1  0  0  0  0
 17 34  1  0  0  0  0
 17 35  1  0  0  0  0
 18 19  1  0  0  0  0
 18 36  1  0  0  0  0
 18 37  1  0  0  0  0
 19 20  1  0  0  0  0
 19 38  1  0  0  0  0
 19 39  1  0  0  0  0
M  END
$$$$
