ZINC000000052534      none
 OpenBabel11202420153D

 23 23  0  0  0  0  0  0  0  0999 V2000
   31.6752   33.8850   59.9368 C   0  0  0  0  0  0  0  0  0  0  0  0
   32.1663   34.8874   58.9243 C   0  0  0  0  0  0  0  0  0  0  0  0
   32.5247   34.4737   57.6336 C   0  0  0  0  0  0  0  0  0  0  0  0
   32.9643   35.3812   56.7307 C   0  0  0  0  0  0  0  0  0  0  0  0
   33.3478   34.9289   55.3453 C   0  0  0  0  0  0  0  0  0  0  0  0
   33.0629   36.6946   57.0599 N   0  0  0  0  0  0  0  0  0  0  0  0
   33.5411   37.6568   56.0641 C   0  0  0  0  0  0  0  0  0  0  0  0
   32.7267   37.1229   58.2915 C   0  0  0  0  0  0  0  0  0  0  0  0
   32.8208   38.3071   58.5724 O   0  0  0  0  0  0  0  0  0  0  0  0
   32.2616   36.2081   59.2516 C   0  0  0  0  0  0  0  0  0  0  0  0
   31.8842   36.6721   60.6055 N   0  0  0  0  0  0  0  0  0  0  0  0
   31.4862   35.8730   61.4341 O   0  0  0  0  0  0  0  0  0  0  0  0
   31.9718   37.8529   60.8910 O   0  0  0  0  0  0  0  0  0  0  0  0
   31.6651   32.8913   59.4890 H   0  0  0  0  0  0  0  0  0  0  0  0
   30.6665   34.1516   60.2523 H   0  0  0  0  0  0  0  0  0  0  0  0
   32.3389   33.8871   60.8015 H   0  0  0  0  0  0  0  0  0  0  0  0
   32.4505   33.4315   57.3601 H   0  0  0  0  0  0  0  0  0  0  0  0
   33.2051   33.8516   55.2623 H   0  0  0  0  0  0  0  0  0  0  0  0
   32.7215   35.4360   54.6113 H   0  0  0  0  0  0  0  0  0  0  0  0
   34.3941   35.1723   55.1603 H   0  0  0  0  0  0  0  0  0  0  0  0
   32.6940   38.0474   55.5001 H   0  0  0  0  0  0  0  0  0  0  0  0
   34.0517   38.4775   56.5678 H   0  0  0  0  0  0  0  0  0  0  0  0
   34.2333   37.1613   55.3832 H   0  0  0  0  0  0  0  0  0  0  0  0
  1  2  1  0  0  0  0
  1 14  1  0  0  0  0
  1 15  1  0  0  0  0
  1 16  1  0  0  0  0
  2 10  2  0  0  0  0
  2  3  1  0  0  0  0
  3  4  2  0  0  0  0
  3 17  1  0  0  0  0
  4  5  1  0  0  0  0
  4  6  1  0  0  0  0
  5 18  1  0  0  0  0
  5 19  1  0  0  0  0
  5 20  1  0  0  0  0
  6  7  1  0  0  0  0
  6  8  1  0  0  0  0
  7 21  1  0  0  0  0
  7 22  1  0  0  0  0
  7 23  1  0  0  0  0
  8  9  2  0  0  0  0
  8 10  1  0  0  0  0
 10 11  1  0  0  0  0
 11 12  2  0  0  0  0
 11 13  2  0  0  0  0
M  END
$$$$
