ZINC000000030333      none
 OpenBabel11202420163D

 30 31  0  0  0  0  0  0  0  0999 V2000
   32.0439   33.2439   59.6599 N   0  0  0  0  0  0  0  0  0  0  0  0
   32.3622   34.3485   58.9562 C   0  0  0  0  0  0  0  0  0  0  0  0
   32.8407   34.2436   57.8434 O   0  0  0  0  0  0  0  0  0  0  0  0
   32.1299   35.6848   59.5362 C   0  0  0  0  0  0  0  0  0  0  0  0
   31.5801   35.8103   60.8142 C   0  0  0  0  0  0  0  0  0  0  0  0
   31.3655   37.0614   61.3504 C   0  0  0  0  0  0  0  0  0  0  0  0
   31.6923   38.1978   60.6280 C   0  0  0  0  0  0  0  0  0  0  0  0
   32.2359   38.0899   59.3640 C   0  0  0  0  0  0  0  0  0  0  0  0
   32.4596   36.8374   58.8075 C   0  0  0  0  0  0  0  0  0  0  0  0
   33.0077   36.7261   57.5329 N   0  0  0  0  0  0  0  0  0  0  0  0
   32.7806   37.6869   56.6154 C   0  0  0  0  0  0  0  0  0  0  0  0
   32.0970   38.6508   56.9012 O   0  0  0  0  0  0  0  0  0  0  0  0
   33.3624   37.5690   55.2627 C   0  0  0  0  0  0  0  0  0  0  0  0
   33.0437   36.4752   54.4552 C   0  0  0  0  0  0  0  0  0  0  0  0
   33.5862   36.3741   53.1902 C   0  0  0  0  0  0  0  0  0  0  0  0
   33.1859   35.0188   52.1820 Cl  0  0  0  0  0  0  0  0  0  0  0  0
   34.4548   37.3477   52.7257 C   0  0  0  0  0  0  0  0  0  0  0  0
   34.7785   38.4314   53.5215 C   0  0  0  0  0  0  0  0  0  0  0  0
   34.2383   38.5482   54.7876 C   0  0  0  0  0  0  0  0  0  0  0  0
   34.6473   39.9081   55.7862 Cl  0  0  0  0  0  0  0  0  0  0  0  0
   31.6621   33.3277   60.5476 H   0  0  0  0  0  0  0  0  0  0  0  0
   32.1966   32.3653   59.2786 H   0  0  0  0  0  0  0  0  0  0  0  0
   31.3240   34.9278   61.3816 H   0  0  0  0  0  0  0  0  0  0  0  0
   30.9448   37.1566   62.3405 H   0  0  0  0  0  0  0  0  0  0  0  0
   31.5201   39.1741   61.0566 H   0  0  0  0  0  0  0  0  0  0  0  0
   32.4879   38.9804   58.8074 H   0  0  0  0  0  0  0  0  0  0  0  0
   33.5531   35.9571   57.3049 H   0  0  0  0  0  0  0  0  0  0  0  0
   32.3708   35.7123   54.8180 H   0  0  0  0  0  0  0  0  0  0  0  0
   34.8800   37.2611   51.7366 H   0  0  0  0  0  0  0  0  0  0  0  0
   35.4561   39.1874   53.1530 H   0  0  0  0  0  0  0  0  0  0  0  0
  1  2  1  0  0  0  0
  1 21  1  0  0  0  0
  1 22  1  0  0  0  0
  2  3  2  0  0  0  0
  2  4  1  0  0  0  0
  4  9  2  0  0  0  0
  4  5  1  0  0  0  0
  5  6  2  0  0  0  0
  5 23  1  0  0  0  0
  6  7  1  0  0  0  0
  6 24  1  0  0  0  0
  7  8  2  0  0  0  0
  7 25  1  0  0  0  0
  8  9  1  0  0  0  0
  8 26  1  0  0  0  0
  9 10  1  0  0  0  0
 10 11  1  0  0  0  0
 10 27  1  0  0  0  0
 11 12  2  0  0  0  0
 11 13  1  0  0  0  0
 13 19  2  0  0  0  0
 13 14  1  0  0  0  0
 14 15  2  0  0  0  0
 14 28  1  0  0  0  0
 15 16  1  0  0  0  0
 15 17  1  0  0  0  0
 17 18  2  0  0  0  0
 17 29  1  0  0  0  0
 18 19  1  0  0  0  0
 18 30  1  0  0  0  0
 19 20  1  0  0  0  0
M  END
$$$$
