ZINC000000033554      none
 OpenBabel11202420153D

 40 41  0  0  0  0  0  0  0  0999 V2000
   29.4490   38.7923   63.2893 C   0  0  0  0  0  0  0  0  0  0  0  0
   30.7502   38.3431   62.9058 O   0  0  0  0  0  0  0  0  0  0  0  0
   30.8121   37.3520   61.9791 C   0  0  0  0  0  0  0  0  0  0  0  0
   30.8685   37.6638   60.6300 C   0  0  0  0  0  0  0  0  0  0  0  0
   30.9314   36.6546   59.6882 C   0  0  0  0  0  0  0  0  0  0  0  0
   30.9382   35.3285   60.0845 C   0  0  0  0  0  0  0  0  0  0  0  0
   30.8874   35.0034   61.4245 C   0  0  0  0  0  0  0  0  0  0  0  0
   30.8187   36.0129   62.3828 C   0  0  0  0  0  0  0  0  0  0  0  0
   30.7592   35.6693   63.8233 C   0  0  0  0  0  0  0  0  0  0  0  0
   29.7116   34.9017   64.3342 C   0  0  0  0  0  0  0  0  0  0  0  0
   29.6875   34.6002   65.6844 C   0  0  0  0  0  0  0  0  0  0  0  0
   28.5563   33.7716   66.2366 C   0  0  0  0  0  0  0  0  0  0  0  0
   28.2940   34.1709   67.6901 C   0  0  0  0  0  0  0  0  0  0  0  0
   27.1456   33.3296   68.2507 C   0  0  0  0  0  0  0  0  0  0  0  0
   27.9182   35.6528   67.7521 C   0  0  0  0  0  0  0  0  0  0  0  0
   30.6304   35.0273   66.4960 N   0  0  0  0  0  0  0  0  0  0  0  0
   31.6542   35.7571   66.0637 C   0  0  0  0  0  0  0  0  0  0  0  0
   32.6575   36.1922   66.9883 C   0  0  0  0  0  0  0  0  0  0  0  0
   33.4533   36.5375   67.7218 N   0  0  0  0  0  0  0  0  0  0  0  0
   31.7558   36.1079   64.7116 C   0  0  0  0  0  0  0  0  0  0  0  0
   32.8212   36.8741   64.2576 N   0  0  0  0  0  0  0  0  0  0  0  0
   28.8874   37.9597   63.7130 H   0  0  0  0  0  0  0  0  0  0  0  0
   29.5424   39.5835   64.0331 H   0  0  0  0  0  0  0  0  0  0  0  0
   28.9247   39.1763   62.4143 H   0  0  0  0  0  0  0  0  0  0  0  0
   30.8635   38.6967   60.3144 H   0  0  0  0  0  0  0  0  0  0  0  0
   30.9752   36.9017   58.6377 H   0  0  0  0  0  0  0  0  0  0  0  0
   30.9875   34.5454   59.3423 H   0  0  0  0  0  0  0  0  0  0  0  0
   30.8973   33.9675   61.7302 H   0  0  0  0  0  0  0  0  0  0  0  0
   28.9272   34.5468   63.6822 H   0  0  0  0  0  0  0  0  0  0  0  0
   28.8240   32.7160   66.1925 H   0  0  0  0  0  0  0  0  0  0  0  0
   27.6573   33.9436   65.6447 H   0  0  0  0  0  0  0  0  0  0  0  0
   29.1930   33.9988   68.2821 H   0  0  0  0  0  0  0  0  0  0  0  0
   26.9586   33.6140   69.2862 H   0  0  0  0  0  0  0  0  0  0  0  0
   26.2466   33.5017   67.6588 H   0  0  0  0  0  0  0  0  0  0  0  0
   27.4132   32.2739   68.2066 H   0  0  0  0  0  0  0  0  0  0  0  0
   27.7314   35.9371   68.7877 H   0  0  0  0  0  0  0  0  0  0  0  0
   28.7365   36.2521   67.3527 H   0  0  0  0  0  0  0  0  0  0  0  0
   27.0194   35.8247   67.1602 H   0  0  0  0  0  0  0  0  0  0  0  0
   32.8826   37.1115   63.3191 H   0  0  0  0  0  0  0  0  0  0  0  0
   33.5040   37.1719   64.8788 H   0  0  0  0  0  0  0  0  0  0  0  0
  1  2  1  0  0  0  0
  1 22  1  0  0  0  0
  1 23  1  0  0  0  0
  1 24  1  0  0  0  0
  2  3  1  0  0  0  0
  3  8  2  0  0  0  0
  3  4  1  0  0  0  0
  4  5  2  0  0  0  0
  4 25  1  0  0  0  0
  5  6  1  0  0  0  0
  5 26  1  0  0  0  0
  6  7  2  0  0  0  0
  6 27  1  0  0  0  0
  7  8  1  0  0  0  0
  7 28  1  0  0  0  0
  8  9  1  0  0  0  0
  9 20  2  0  0  0  0
  9 10  1  0  0  0  0
 10 11  2  0  0  0  0
 10 29  1  0  0  0  0
 11 12  1  0  0  0  0
 11 16  1  0  0  0  0
 12 13  1  0  0  0  0
 12 30  1  0  0  0  0
 12 31  1  0  0  0  0
 13 14  1  0  0  0  0
 13 15  1  0  0  0  0
 13 32  1  0  0  0  0
 14 33  1  0  0  0  0
 14 34  1  0  0  0  0
 14 35  1  0  0  0  0
 15 36  1  0  0  0  0
 15 37  1  0  0  0  0
 15 38  1  0  0  0  0
 16 17  2  0  0  0  0
 17 18  1  0  0  0  0
 17 20  1  0  0  0  0
 18 19  3  0  0  0  0
 20 21  1  0  0  0  0
 21 39  1  0  0  0  0
 21 40  1  0  0  0  0
M  END
$$$$
