ZINC000000028323      none
 OpenBabel11202420163D

 40 41  0  0  0  0  0  0  0  0999 V2000
   33.9805   36.4190   54.1884 C   0  0  0  0  0  0  0  0  0  0  0  0
   34.0723   37.7388   54.7284 O   0  0  0  0  0  0  0  0  0  0  0  0
   33.6706   37.9080   56.0139 C   0  0  0  0  0  0  0  0  0  0  0  0
   33.7337   39.1673   56.5994 C   0  0  0  0  0  0  0  0  0  0  0  0
   33.3279   39.3441   57.9030 C   0  0  0  0  0  0  0  0  0  0  0  0
   32.8506   38.2533   58.6388 C   0  0  0  0  0  0  0  0  0  0  0  0
   32.4165   38.4362   60.0312 C   0  0  0  0  0  0  0  0  0  0  0  0
   32.3437   37.3738   60.8607 C   0  0  0  0  0  0  0  0  0  0  0  0
   31.9060   37.5548   62.2444 C   0  0  0  0  0  0  0  0  0  0  0  0
   32.6474   37.2536   63.1616 O   0  0  0  0  0  0  0  0  0  0  0  0
   30.6818   38.0553   62.5039 N   0  0  0  0  0  0  0  0  0  0  0  0
   30.2434   38.2366   63.8899 C   0  0  0  0  0  0  0  0  0  0  0  0
   31.1950   39.1984   64.6042 C   0  0  0  0  0  0  0  0  0  0  0  0
   30.7370   39.3876   66.0519 C   0  0  0  0  0  0  0  0  0  0  0  0
   30.7437   38.0365   66.7696 C   0  0  0  0  0  0  0  0  0  0  0  0
   29.7922   37.0747   66.0554 C   0  0  0  0  0  0  0  0  0  0  0  0
   30.2501   36.8854   64.6078 C   0  0  0  0  0  0  0  0  0  0  0  0
   32.7936   36.9865   58.0461 C   0  0  0  0  0  0  0  0  0  0  0  0
   33.1970   36.8214   56.7403 C   0  0  0  0  0  0  0  0  0  0  0  0
   34.5963   35.7410   54.7793 H   0  0  0  0  0  0  0  0  0  0  0  0
   32.9431   36.0860   54.2172 H   0  0  0  0  0  0  0  0  0  0  0  0
   34.3322   36.4234   53.1567 H   0  0  0  0  0  0  0  0  0  0  0  0
   34.1021   40.0083   56.0307 H   0  0  0  0  0  0  0  0  0  0  0  0
   33.3773   40.3228   58.3569 H   0  0  0  0  0  0  0  0  0  0  0  0
   32.1514   39.4200   60.3894 H   0  0  0  0  0  0  0  0  0  0  0  0
   32.6088   36.3900   60.5024 H   0  0  0  0  0  0  0  0  0  0  0  0
   30.0910   38.2955   61.7730 H   0  0  0  0  0  0  0  0  0  0  0  0
   29.2344   38.6488   63.9009 H   0  0  0  0  0  0  0  0  0  0  0  0
   32.2039   38.7862   64.5934 H   0  0  0  0  0  0  0  0  0  0  0  0
   31.1901   40.1609   64.0929 H   0  0  0  0  0  0  0  0  0  0  0  0
   29.7280   39.7998   66.0628 H   0  0  0  0  0  0  0  0  0  0  0  0
   31.4149   40.0727   66.5609 H   0  0  0  0  0  0  0  0  0  0  0  0
   30.4175   38.1713   67.8009 H   0  0  0  0  0  0  0  0  0  0  0  0
   31.7527   37.6242   66.7587 H   0  0  0  0  0  0  0  0  0  0  0  0
   28.7833   37.4869   66.0662 H   0  0  0  0  0  0  0  0  0  0  0  0
   29.7970   36.1120   66.5667 H   0  0  0  0  0  0  0  0  0  0  0  0
   29.5721   36.2003   64.0988 H   0  0  0  0  0  0  0  0  0  0  0  0
   31.2590   36.4732   64.5968 H   0  0  0  0  0  0  0  0  0  0  0  0
   32.4299   36.1408   58.6110 H   0  0  0  0  0  0  0  0  0  0  0  0
   33.1498   35.8451   56.2809 H   0  0  0  0  0  0  0  0  0  0  0  0
  1  2  1  0  0  0  0
  1 20  1  0  0  0  0
  1 21  1  0  0  0  0
  1 22  1  0  0  0  0
  2  3  1  0  0  0  0
  3 19  2  0  0  0  0
  3  4  1  0  0  0  0
  4  5  2  0  0  0  0
  4 23  1  0  0  0  0
  5  6  1  0  0  0  0
  5 24  1  0  0  0  0
  6  7  1  0  0  0  0
  6 18  2  0  0  0  0
  7  8  2  0  0  0  0
  7 25  1  0  0  0  0
  8  9  1  0  0  0  0
  8 26  1  0  0  0  0
  9 10  2  0  0  0  0
  9 11  1  0  0  0  0
 11 12  1  0  0  0  0
 11 27  1  0  0  0  0
 12 17  1  0  0  0  0
 12 13  1  0  0  0  0
 12 28  1  0  0  0  0
 13 14  1  0  0  0  0
 13 29  1  0  0  0  0
 13 30  1  0  0  0  0
 14 15  1  0  0  0  0
 14 31  1  0  0  0  0
 14 32  1  0  0  0  0
 15 16  1  0  0  0  0
 15 33  1  0  0  0  0
 15 34  1  0  0  0  0
 16 17  1  0  0  0  0
 16 35  1  0  0  0  0
 16 36  1  0  0  0  0
 17 37  1  0  0  0  0
 17 38  1  0  0  0  0
 18 19  1  0  0  0  0
 18 39  1  0  0  0  0
 19 40  1  0  0  0  0
M  END
$$$$
