ZINC000000057124      none
 OpenBabel11202420153D

 41 42  0  0  1  0  0  0  0  0999 V2000
   29.4491   33.8287   64.7817 C   0  0  0  0  0  0  0  0  0  0  0  0
   28.7196   34.7859   63.8746 C   0  0  0  0  0  0  0  0  0  0  0  0
   27.5555   35.0399   64.0752 O   0  0  0  0  0  0  0  0  0  0  0  0
   29.3630   35.3560   62.8438 O   0  0  0  0  0  0  0  0  0  0  0  0
   28.9159   36.6761   62.4366 C   0  0  0  0  0  0  0  0  0  0  0  0
   30.0957   37.4570   61.8541 C   0  0  2  0  0  0  0  0  0  0  0  0
   29.8801   38.5253   61.8751 H   0  0  0  0  0  0  0  0  0  0  0  0
   30.3386   37.0369   60.5064 O   0  0  0  0  0  0  0  0  0  0  0  0
   31.6509   36.4623   60.4007 C   0  0  1  0  0  0  0  0  0  0  0  0
   31.5995   35.3790   60.5101 H   0  0  0  0  0  0  0  0  0  0  0  0
   32.2579   36.8143   59.1146 N   0  0  0  0  0  0  0  0  0  0  0  0
   32.4558   38.1302   58.7962 C   0  0  0  0  0  0  0  0  0  0  0  0
   33.0205   38.4542   57.6132 C   0  0  0  0  0  0  0  0  0  0  0  0
   33.2512   39.8979   57.2473 C   0  0  0  0  0  0  0  0  0  0  0  0
   33.3923   37.4198   56.7210 C   0  0  0  0  0  0  0  0  0  0  0  0
   33.9028   37.6875   55.6484 O   0  0  0  0  0  0  0  0  0  0  0  0
   33.1757   36.1355   57.0700 N   0  0  0  0  0  0  0  0  0  0  0  0
   33.4279   35.4212   56.4641 H   0  0  0  0  0  0  0  0  0  0  0  0
   32.6114   35.8407   58.2560 C   0  0  0  0  0  0  0  0  0  0  0  0
   32.4226   34.6781   58.5572 O   0  0  0  0  0  0  0  0  0  0  0  0
   32.4619   37.0827   61.5660 C   0  0  0  0  0  0  0  0  0  0  0  0
   31.3723   37.1642   62.6713 C   0  0  1  0  0  0  0  0  0  0  0  0
   31.2842   36.2162   63.2021 H   0  0  0  0  0  0  0  0  0  0  0  0
   31.6535   38.2475   63.5964 O   0  0  0  0  0  0  0  0  0  0  0  0
   31.1714   38.1249   64.8432 C   0  0  0  0  0  0  0  0  0  0  0  0
   31.4233   39.2095   65.8585 C   0  0  0  0  0  0  0  0  0  0  0  0
   30.5356   37.1447   65.1512 O   0  0  0  0  0  0  0  0  0  0  0  0
   29.9003   34.3817   65.6057 H   0  0  0  0  0  0  0  0  0  0  0  0
   28.7460   33.0960   65.1778 H   0  0  0  0  0  0  0  0  0  0  0  0
   30.2287   33.3165   64.2179 H   0  0  0  0  0  0  0  0  0  0  0  0
   28.5197   37.2083   63.3015 H   0  0  0  0  0  0  0  0  0  0  0  0
   28.1361   36.5788   61.6813 H   0  0  0  0  0  0  0  0  0  0  0  0
   32.1661   38.9058   59.4896 H   0  0  0  0  0  0  0  0  0  0  0  0
   34.2376   40.2071   57.5927 H   0  0  0  0  0  0  0  0  0  0  0  0
   33.1929   40.0121   56.1648 H   0  0  0  0  0  0  0  0  0  0  0  0
   32.4898   40.5186   57.7197 H   0  0  0  0  0  0  0  0  0  0  0  0
   33.2805   36.4288   61.8667 H   0  0  0  0  0  0  0  0  0  0  0  0
   32.8297   38.0748   61.3041 H   0  0  0  0  0  0  0  0  0  0  0  0
   32.0094   40.0065   65.4008 H   0  0  0  0  0  0  0  0  0  0  0  0
   30.4711   39.6116   66.2045 H   0  0  0  0  0  0  0  0  0  0  0  0
   31.9716   38.7951   66.7045 H   0  0  0  0  0  0  0  0  0  0  0  0
  1  2  1  0  0  0  0
  1 28  1  0  0  0  0
  1 29  1  0  0  0  0
  1 30  1  0  0  0  0
  2  3  2  0  0  0  0
  2  4  1  0  0  0  0
  4  5  1  0  0  0  0
  5  6  1  0  0  0  0
  5 31  1  0  0  0  0
  5 32  1  0  0  0  0
  6  7  1  1  0  0  0
  6 22  1  0  0  0  0
  6  8  1  0  0  0  0
  8  9  1  0  0  0  0
  9 10  1  1  0  0  0
  9 11  1  0  0  0  0
  9 21  1  0  0  0  0
 11 19  1  0  0  0  0
 11 12  1  0  0  0  0
 12 13  2  0  0  0  0
 12 33  1  0  0  0  0
 13 14  1  0  0  0  0
 13 15  1  0  0  0  0
 14 34  1  0  0  0  0
 14 35  1  0  0  0  0
 14 36  1  0  0  0  0
 15 16  2  0  0  0  0
 15 17  1  0  0  0  0
 17 18  1  0  0  0  0
 17 19  1  0  0  0  0
 19 20  2  0  0  0  0
 21 22  1  0  0  0  0
 21 37  1  0  0  0  0
 21 38  1  0  0  0  0
 22 23  1  1  0  0  0
 22 24  1  0  0  0  0
 24 25  1  0  0  0  0
 25 26  1  0  0  0  0
 25 27  2  0  0  0  0
 26 39  1  0  0  0  0
 26 40  1  0  0  0  0
 26 41  1  0  0  0  0
M  END
$$$$
