ZINC000000014023      none
 OpenBabel11202420153D

 25 27  0  0  0  0  0  0  0  0999 V2000
   31.1072   32.9939   61.1627 O   0  0  0  0  0  0  0  0  0  0  0  0
   31.6116   33.9586   60.6212 C   0  0  0  0  0  0  0  0  0  0  0  0
   31.8053   33.8476   59.3335 N   0  0  0  0  0  0  0  0  0  0  0  0
   32.3711   34.7372   58.4307 C   0  0  0  0  0  0  0  0  0  0  0  0
   33.2879   34.2482   57.5022 C   0  0  0  0  0  0  0  0  0  0  0  0
   33.8801   35.0973   56.5888 C   0  0  0  0  0  0  0  0  0  0  0  0
   33.5602   36.4422   56.5793 C   0  0  0  0  0  0  0  0  0  0  0  0
   32.6482   36.9381   57.4915 C   0  0  0  0  0  0  0  0  0  0  0  0
   32.0535   36.0900   58.4162 C   0  0  0  0  0  0  0  0  0  0  0  0
   30.8942   36.7485   59.5673 S   0  0  0  0  0  0  0  0  0  0  0  0
   31.6480   36.4087   61.1223 C   0  0  0  0  0  0  0  0  0  0  0  0
   31.9679   37.4563   61.9773 C   0  0  0  0  0  0  0  0  0  0  0  0
   32.5461   37.1974   63.2032 C   0  0  0  0  0  0  0  0  0  0  0  0
   32.8103   35.8919   63.5862 C   0  0  0  0  0  0  0  0  0  0  0  0
   32.5042   34.8435   62.7486 C   0  0  0  0  0  0  0  0  0  0  0  0
   31.9196   35.0872   61.4978 C   0  0  0  0  0  0  0  0  0  0  0  0
   31.5061   33.0097   58.9470 H   0  0  0  0  0  0  0  0  0  0  0  0
   33.5404   33.1981   57.5002 H   0  0  0  0  0  0  0  0  0  0  0  0
   34.5927   34.7088   55.8764 H   0  0  0  0  0  0  0  0  0  0  0  0
   34.0216   37.1033   55.8607 H   0  0  0  0  0  0  0  0  0  0  0  0
   32.3974   37.9886   57.4854 H   0  0  0  0  0  0  0  0  0  0  0  0
   31.7634   38.4748   61.6821 H   0  0  0  0  0  0  0  0  0  0  0  0
   32.7937   38.0138   63.8654 H   0  0  0  0  0  0  0  0  0  0  0  0
   33.2598   35.6959   64.5485 H   0  0  0  0  0  0  0  0  0  0  0  0
   32.7152   33.8299   63.0558 H   0  0  0  0  0  0  0  0  0  0  0  0
  1  2  2  0  0  0  0
  2 16  1  0  0  0  0
  2  3  1  0  0  0  0
  3  4  1  0  0  0  0
  3 17  1  0  0  0  0
  4  9  2  0  0  0  0
  4  5  1  0  0  0  0
  5  6  2  0  0  0  0
  5 18  1  0  0  0  0
  6  7  1  0  0  0  0
  6 19  1  0  0  0  0
  7  8  2  0  0  0  0
  7 20  1  0  0  0  0
  8  9  1  0  0  0  0
  8 21  1  0  0  0  0
  9 10  1  0  0  0  0
 10 11  1  0  0  0  0
 11 16  2  0  0  0  0
 11 12  1  0  0  0  0
 12 13  2  0  0  0  0
 12 22  1  0  0  0  0
 13 14  1  0  0  0  0
 13 23  1  0  0  0  0
 14 15  2  0  0  0  0
 14 24  1  0  0  0  0
 15 16  1  0  0  0  0
 15 25  1  0  0  0  0
M  END
$$$$
