ZINC000000049566      none
 OpenBabel11202420153D

 31 34  0  0  0  0  0  0  0  0999 V2000
   31.6569   35.3776   64.2376 O   0  0  0  0  0  0  0  0  0  0  0  0
   31.6624   35.9528   63.1662 C   0  0  0  0  0  0  0  0  0  0  0  0
   32.0468   35.2253   61.9479 C   0  0  0  0  0  0  0  0  0  0  0  0
   32.4096   33.8866   61.9678 C   0  0  0  0  0  0  0  0  0  0  0  0
   32.7707   33.2437   60.7897 C   0  0  0  0  0  0  0  0  0  0  0  0
   32.7801   33.8980   59.5912 C   0  0  0  0  0  0  0  0  0  0  0  0
   32.4177   35.2549   59.5274 C   0  0  0  0  0  0  0  0  0  0  0  0
   32.4115   35.9723   58.3185 C   0  0  0  0  0  0  0  0  0  0  0  0
   32.0540   37.2900   58.3076 C   0  0  0  0  0  0  0  0  0  0  0  0
   31.6888   37.9554   59.4720 C   0  0  0  0  0  0  0  0  0  0  0  0
   31.6823   37.2835   60.6855 C   0  0  0  0  0  0  0  0  0  0  0  0
   32.0505   35.9191   60.7163 C   0  0  0  0  0  0  0  0  0  0  0  0
   31.3049   37.9409   61.9450 C   0  0  0  0  0  0  0  0  0  0  0  0
   30.9845   39.1142   61.9423 O   0  0  0  0  0  0  0  0  0  0  0  0
   31.3122   37.2514   63.1016 N   0  0  0  0  0  0  0  0  0  0  0  0
   30.9485   37.9090   64.2788 C   0  0  0  0  0  0  0  0  0  0  0  0
   30.0328   38.9534   64.2293 C   0  0  0  0  0  0  0  0  0  0  0  0
   29.6808   39.5963   65.4032 C   0  0  0  0  0  0  0  0  0  0  0  0
   30.2597   39.1700   66.5907 C   0  0  0  0  0  0  0  0  0  0  0  0
   31.1669   38.1291   66.5649 C   0  0  0  0  0  0  0  0  0  0  0  0
   31.4787   37.5316   65.4309 N   0  0  0  0  0  0  0  0  0  0  0  0
   32.4116   33.3428   62.9008 H   0  0  0  0  0  0  0  0  0  0  0  0
   33.0511   32.2013   60.8228 H   0  0  0  0  0  0  0  0  0  0  0  0
   33.0650   33.3726   58.6917 H   0  0  0  0  0  0  0  0  0  0  0  0
   32.6893   35.4808   57.3978 H   0  0  0  0  0  0  0  0  0  0  0  0
   32.0544   37.8282   57.3712 H   0  0  0  0  0  0  0  0  0  0  0  0
   31.4098   38.9980   59.4318 H   0  0  0  0  0  0  0  0  0  0  0  0
   29.6021   39.2594   63.2874 H   0  0  0  0  0  0  0  0  0  0  0  0
   28.9722   40.4113   65.3956 H   0  0  0  0  0  0  0  0  0  0  0  0
   30.0066   39.6503   67.5244 H   0  0  0  0  0  0  0  0  0  0  0  0
   31.6236   37.7971   67.4856 H   0  0  0  0  0  0  0  0  0  0  0  0
  1  2  2  0  0  0  0
  2 15  1  0  0  0  0
  2  3  1  0  0  0  0
  3 12  2  0  0  0  0
  3  4  1  0  0  0  0
  4  5  2  0  0  0  0
  4 22  1  0  0  0  0
  5  6  1  0  0  0  0
  5 23  1  0  0  0  0
  6  7  2  0  0  0  0
  6 24  1  0  0  0  0
  7 12  1  0  0  0  0
  7  8  1  0  0  0  0
  8  9  2  0  0  0  0
  8 25  1  0  0  0  0
  9 10  1  0  0  0  0
  9 26  1  0  0  0  0
 10 11  2  0  0  0  0
 10 27  1  0  0  0  0
 11 12  1  0  0  0  0
 11 13  1  0  0  0  0
 13 14  2  0  0  0  0
 13 15  1  0  0  0  0
 15 16  1  0  0  0  0
 16 21  2  0  0  0  0
 16 17  1  0  0  0  0
 17 18  2  0  0  0  0
 17 28  1  0  0  0  0
 18 19  1  0  0  0  0
 18 29  1  0  0  0  0
 19 20  2  0  0  0  0
 19 30  1  0  0  0  0
 20 21  1  0  0  0  0
 20 31  1  0  0  0  0
M  END
$$$$
