ZINC000000053856      none
 OpenBabel11202420153D

 28 30  0  0  0  0  0  0  0  0999 V2000
   33.1570   40.8218   58.8371 N   0  0  0  0  0  0  0  0  0  0  0  0
   33.2925   39.6841   58.0516 C   0  0  0  0  0  0  0  0  0  0  0  0
   33.8661   39.5605   56.8774 N   0  0  0  0  0  0  0  0  0  0  0  0
   33.7849   38.4125   56.5088 O   0  0  0  0  0  0  0  0  0  0  0  0
   33.2204   37.6518   57.2592 N   0  0  0  0  0  0  0  0  0  0  0  0
   32.8259   38.3064   58.3284 C   0  0  0  0  0  0  0  0  0  0  0  0
   32.0963   37.7934   59.5152 C   0  0  0  0  0  0  0  0  0  0  0  0
   31.7096   36.5608   59.7152 N   0  0  0  0  0  0  0  0  0  0  0  0
   31.1391   36.4706   60.7819 O   0  0  0  0  0  0  0  0  0  0  0  0
   31.1033   37.6637   61.3838 C   0  0  0  0  0  0  0  0  0  0  0  0
   30.4835   37.9727   62.7223 C   0  0  0  0  0  0  0  0  0  0  0  0
   31.3745   38.7920   63.4818 O   0  0  0  0  0  0  0  0  0  0  0  0
   31.8069   38.2954   64.6712 C   0  0  0  0  0  0  0  0  0  0  0  0
   31.0931   38.5538   65.8321 C   0  0  0  0  0  0  0  0  0  0  0  0
   31.5313   38.0449   67.0394 C   0  0  0  0  0  0  0  0  0  0  0  0
   32.6879   37.2856   67.0924 C   0  0  0  0  0  0  0  0  0  0  0  0
   33.1183   36.7932   68.2746 F   0  0  0  0  0  0  0  0  0  0  0  0
   33.4040   37.0309   65.9352 C   0  0  0  0  0  0  0  0  0  0  0  0
   32.9654   37.5345   64.7258 C   0  0  0  0  0  0  0  0  0  0  0  0
   31.7124   38.5125   60.5939 N   0  0  0  0  0  0  0  0  0  0  0  0
   32.7046   40.7688   59.6935 H   0  0  0  0  0  0  0  0  0  0  0  0
   33.5148   41.6692   58.5293 H   0  0  0  0  0  0  0  0  0  0  0  0
   29.5419   38.5011   62.5733 H   0  0  0  0  0  0  0  0  0  0  0  0
   30.2973   37.0429   63.2599 H   0  0  0  0  0  0  0  0  0  0  0  0
   30.1933   39.1497   65.7918 H   0  0  0  0  0  0  0  0  0  0  0  0
   30.9738   38.2430   67.9429 H   0  0  0  0  0  0  0  0  0  0  0  0
   34.3060   36.4384   65.9779 H   0  0  0  0  0  0  0  0  0  0  0  0
   33.5245   37.3363   63.8233 H   0  0  0  0  0  0  0  0  0  0  0  0
  1  2  1  0  0  0  0
  1 21  1  0  0  0  0
  1 22  1  0  0  0  0
  2  6  1  0  0  0  0
  2  3  2  0  0  0  0
  3  4  1  0  0  0  0
  4  5  1  0  0  0  0
  5  6  2  0  0  0  0
  6  7  1  0  0  0  0
  7 20  1  0  0  0  0
  7  8  2  0  0  0  0
  8  9  1  0  0  0  0
  9 10  1  0  0  0  0
 10 11  1  0  0  0  0
 10 20  2  0  0  0  0
 11 12  1  0  0  0  0
 11 23  1  0  0  0  0
 11 24  1  0  0  0  0
 12 13  1  0  0  0  0
 13 19  2  0  0  0  0
 13 14  1  0  0  0  0
 14 15  2  0  0  0  0
 14 25  1  0  0  0  0
 15 16  1  0  0  0  0
 15 26  1  0  0  0  0
 16 17  1  0  0  0  0
 16 18  2  0  0  0  0
 18 19  1  0  0  0  0
 18 27  1  0  0  0  0
 19 28  1  0  0  0  0
M  END
$$$$
