ZINC000000044002      none
 OpenBabel11202420153D

 39 40  0  0  0  0  0  0  0  0999 V2000
   30.7855   32.6745   56.9481 C   0  0  0  0  0  0  0  0  0  0  0  0
   31.8614   33.3678   56.1096 C   0  0  0  0  0  0  0  0  0  0  0  0
   32.5604   34.3145   56.9202 O   0  0  0  0  0  0  0  0  0  0  0  0
   33.0639   35.4079   56.2948 C   0  0  0  0  0  0  0  0  0  0  0  0
   33.4619   35.3302   54.9683 C   0  0  0  0  0  0  0  0  0  0  0  0
   33.9737   36.4439   54.3329 C   0  0  0  0  0  0  0  0  0  0  0  0
   34.0939   37.6453   55.0124 C   0  0  0  0  0  0  0  0  0  0  0  0
   33.7035   37.7407   56.3304 C   0  0  0  0  0  0  0  0  0  0  0  0
   33.1838   36.6213   56.9858 C   0  0  0  0  0  0  0  0  0  0  0  0
   32.7635   36.7164   58.3964 C   0  0  0  0  0  0  0  0  0  0  0  0
   32.8691   37.7710   58.9925 O   0  0  0  0  0  0  0  0  0  0  0  0
   32.2624   35.6345   59.0247 N   0  0  0  0  0  0  0  0  0  0  0  0
   31.8640   35.7246   60.3622 C   0  0  0  0  0  0  0  0  0  0  0  0
   31.3931   36.9293   60.8686 C   0  0  0  0  0  0  0  0  0  0  0  0
   30.9955   37.0134   62.1883 C   0  0  0  0  0  0  0  0  0  0  0  0
   30.4790   38.3186   62.7370 C   0  0  0  0  0  0  0  0  0  0  0  0
   31.0756   35.9029   63.0084 C   0  0  0  0  0  0  0  0  0  0  0  0
   31.5493   34.7037   62.5090 C   0  0  0  0  0  0  0  0  0  0  0  0
   31.9437   34.6113   61.1885 C   0  0  0  0  0  0  0  0  0  0  0  0
   32.4603   33.3040   60.6452 C   0  0  0  0  0  0  0  0  0  0  0  0
   30.0836   33.4184   57.3253 H   0  0  0  0  0  0  0  0  0  0  0  0
   30.2523   31.9524   56.3298 H   0  0  0  0  0  0  0  0  0  0  0  0
   31.2542   32.1592   57.7865 H   0  0  0  0  0  0  0  0  0  0  0  0
   31.3927   33.8832   55.2713 H   0  0  0  0  0  0  0  0  0  0  0  0
   32.5634   32.6241   55.7324 H   0  0  0  0  0  0  0  0  0  0  0  0
   33.3716   34.3972   54.4320 H   0  0  0  0  0  0  0  0  0  0  0  0
   34.2865   36.3770   53.3013 H   0  0  0  0  0  0  0  0  0  0  0  0
   34.4958   38.5110   54.5069 H   0  0  0  0  0  0  0  0  0  0  0  0
   33.7994   38.6790   56.8563 H   0  0  0  0  0  0  0  0  0  0  0  0
   32.1781   34.7932   58.5491 H   0  0  0  0  0  0  0  0  0  0  0  0
   31.3340   37.7980   60.2296 H   0  0  0  0  0  0  0  0  0  0  0  0
   31.3106   38.8994   63.1362 H   0  0  0  0  0  0  0  0  0  0  0  0
   29.9928   38.8809   61.9397 H   0  0  0  0  0  0  0  0  0  0  0  0
   29.7603   38.1195   63.5318 H   0  0  0  0  0  0  0  0  0  0  0  0
   30.7679   35.9725   64.0413 H   0  0  0  0  0  0  0  0  0  0  0  0
   31.6115   33.8383   63.1523 H   0  0  0  0  0  0  0  0  0  0  0  0
   33.5407   33.2555   60.7813 H   0  0  0  0  0  0  0  0  0  0  0  0
   31.9895   32.4778   61.1779 H   0  0  0  0  0  0  0  0  0  0  0  0
   32.2244   33.2332   59.5833 H   0  0  0  0  0  0  0  0  0  0  0  0
  1  2  1  0  0  0  0
  1 21  1  0  0  0  0
  1 22  1  0  0  0  0
  1 23  1  0  0  0  0
  2  3  1  0  0  0  0
  2 24  1  0  0  0  0
  2 25  1  0  0  0  0
  3  4  1  0  0  0  0
  4  9  2  0  0  0  0
  4  5  1  0  0  0  0
  5  6  2  0  0  0  0
  5 26  1  0  0  0  0
  6  7  1  0  0  0  0
  6 27  1  0  0  0  0
  7  8  2  0  0  0  0
  7 28  1  0  0  0  0
  8  9  1  0  0  0  0
  8 29  1  0  0  0  0
  9 10  1  0  0  0  0
 10 11  2  0  0  0  0
 10 12  1  0  0  0  0
 12 13  1  0  0  0  0
 12 30  1  0  0  0  0
 13 19  2  0  0  0  0
 13 14  1  0  0  0  0
 14 15  2  0  0  0  0
 14 31  1  0  0  0  0
 15 16  1  0  0  0  0
 15 17  1  0  0  0  0
 16 32  1  0  0  0  0
 16 33  1  0  0  0  0
 16 34  1  0  0  0  0
 17 18  2  0  0  0  0
 17 35  1  0  0  0  0
 18 19  1  0  0  0  0
 18 36  1  0  0  0  0
 19 20  1  0  0  0  0
 20 37  1  0  0  0  0
 20 38  1  0  0  0  0
 20 39  1  0  0  0  0
M  END
$$$$
