ZINC000000031265      none
 OpenBabel11202420163D

 32 34  0  0  0  0  0  0  0  0999 V2000
   31.9704   33.7986   57.3402 C   0  0  0  0  0  0  0  0  0  0  0  0
   32.2083   35.1590   56.9734 O   0  0  0  0  0  0  0  0  0  0  0  0
   32.5843   36.0024   57.9579 C   0  0  0  0  0  0  0  0  0  0  0  0
   32.7063   35.5920   59.0972 O   0  0  0  0  0  0  0  0  0  0  0  0
   32.8363   37.3631   57.6656 C   0  0  0  0  0  0  0  0  0  0  0  0
   33.4310   37.9846   56.1322 S   0  0  0  0  0  0  0  0  0  0  0  0
   33.4164   39.5863   56.7180 C   0  0  0  0  0  0  0  0  0  0  0  0
   32.9866   39.6351   57.9817 C   0  0  0  0  0  0  0  0  0  0  0  0
   32.6534   38.4138   58.5347 C   0  0  0  0  0  0  0  0  0  0  0  0
   32.1860   38.2613   59.8392 N   0  0  0  0  0  0  0  0  0  0  0  0
   30.9734   37.7167   60.0611 C   0  0  0  0  0  0  0  0  0  0  0  0
   30.2869   37.3583   59.1236 O   0  0  0  0  0  0  0  0  0  0  0  0
   30.4812   37.5496   61.4423 C   0  0  0  0  0  0  0  0  0  0  0  0
   29.5637   36.5391   61.7414 C   0  0  0  0  0  0  0  0  0  0  0  0
   29.1106   36.3805   63.0326 C   0  0  0  0  0  0  0  0  0  0  0  0
   29.5524   37.2304   64.0379 C   0  0  0  0  0  0  0  0  0  0  0  0
   30.4642   38.2453   63.7446 C   0  0  0  0  0  0  0  0  0  0  0  0
   30.9272   38.4051   62.4531 C   0  0  0  0  0  0  0  0  0  0  0  0
   30.7349   38.9325   64.8929 O   0  0  0  0  0  0  0  0  0  0  0  0
   29.6737   38.5907   65.8038 C   0  0  0  0  0  0  0  0  0  0  0  0
   29.2552   37.2841   65.3676 O   0  0  0  0  0  0  0  0  0  0  0  0
   31.6758   33.2305   56.4577 H   0  0  0  0  0  0  0  0  0  0  0  0
   32.8807   33.3710   57.7603 H   0  0  0  0  0  0  0  0  0  0  0  0
   31.1730   33.7565   58.0822 H   0  0  0  0  0  0  0  0  0  0  0  0
   33.7155   40.4494   56.1417 H   0  0  0  0  0  0  0  0  0  0  0  0
   32.9053   40.5615   58.5309 H   0  0  0  0  0  0  0  0  0  0  0  0
   32.7335   38.5471   60.5870 H   0  0  0  0  0  0  0  0  0  0  0  0
   29.2134   35.8796   60.9614 H   0  0  0  0  0  0  0  0  0  0  0  0
   28.4050   35.5958   63.2628 H   0  0  0  0  0  0  0  0  0  0  0  0
   31.6326   39.1903   62.2248 H   0  0  0  0  0  0  0  0  0  0  0  0
   28.8531   39.3032   65.7204 H   0  0  0  0  0  0  0  0  0  0  0  0
   30.0456   38.5518   66.8277 H   0  0  0  0  0  0  0  0  0  0  0  0
  1  2  1  0  0  0  0
  1 22  1  0  0  0  0
  1 23  1  0  0  0  0
  1 24  1  0  0  0  0
  2  3  1  0  0  0  0
  3  4  2  0  0  0  0
  3  5  1  0  0  0  0
  5  9  2  0  0  0  0
  5  6  1  0  0  0  0
  6  7  1  0  0  0  0
  7  8  2  0  0  0  0
  7 25  1  0  0  0  0
  8  9  1  0  0  0  0
  8 26  1  0  0  0  0
  9 10  1  0  0  0  0
 10 11  1  0  0  0  0
 10 27  1  0  0  0  0
 11 12  2  0  0  0  0
 11 13  1  0  0  0  0
 13 18  2  0  0  0  0
 13 14  1  0  0  0  0
 14 15  2  0  0  0  0
 14 28  1  0  0  0  0
 15 16  1  0  0  0  0
 15 29  1  0  0  0  0
 16 21  1  0  0  0  0
 16 17  2  0  0  0  0
 17 18  1  0  0  0  0
 17 19  1  0  0  0  0
 18 30  1  0  0  0  0
 19 20  1  0  0  0  0
 20 21  1  0  0  0  0
 20 31  1  0  0  0  0
 20 32  1  0  0  0  0
M  END
$$$$
