ZINC000000002203      none
 OpenBabel11202420153D

 27 30  0  0  0  0  0  0  0  0999 V2000
   33.1249   34.6846   55.6270 O   0  0  0  0  0  0  0  0  0  0  0  0
   32.9677   35.4492   56.5607 C   0  0  0  0  0  0  0  0  0  0  0  0
   32.4251   34.9914   57.8543 C   0  0  0  0  0  0  0  0  0  0  0  0
   32.0757   33.6546   58.0569 C   0  0  0  0  0  0  0  0  0  0  0  0
   31.5683   33.2960   59.2929 C   0  0  0  0  0  0  0  0  0  0  0  0
   31.4372   34.2637   60.2758 C   0  0  0  0  0  0  0  0  0  0  0  0
   31.7787   35.5168   60.0611 N   0  0  0  0  0  0  0  0  0  0  0  0
   32.2662   35.9213   58.8944 C   0  0  0  0  0  0  0  0  0  0  0  0
   32.6016   37.2144   58.7210 O   0  0  0  0  0  0  0  0  0  0  0  0
   33.1032   37.7099   57.5713 C   0  0  0  0  0  0  0  0  0  0  0  0
   33.4232   39.0637   57.4819 C   0  0  0  0  0  0  0  0  0  0  0  0
   33.1752   40.1025   58.8504 Cl  0  0  0  0  0  0  0  0  0  0  0  0
   33.9345   39.5804   56.3128 C   0  0  0  0  0  0  0  0  0  0  0  0
   34.1408   38.7582   55.2019 C   0  0  0  0  0  0  0  0  0  0  0  0
   34.6938   39.3281   53.9475 C   0  0  0  0  0  0  0  0  0  0  0  0
   35.0348   40.6063   53.7311 N   0  0  0  0  0  0  0  0  0  0  0  0
   35.4742   40.6857   52.5209 N   0  0  0  0  0  0  0  0  0  0  0  0
   35.4125   39.5208   51.9766 N   0  0  0  0  0  0  0  0  0  0  0  0
   35.6800   39.3110   51.0682 H   0  0  0  0  0  0  0  0  0  0  0  0
   34.9395   38.6768   52.8281 N   0  0  0  0  0  0  0  0  0  0  0  0
   33.8281   37.4072   55.2735 C   0  0  0  0  0  0  0  0  0  0  0  0
   33.3102   36.8833   56.4558 C   0  0  0  0  0  0  0  0  0  0  0  0
   32.1943   32.9235   57.2708 H   0  0  0  0  0  0  0  0  0  0  0  0
   31.2823   32.2736   59.4908 H   0  0  0  0  0  0  0  0  0  0  0  0
   31.0447   33.9830   61.2420 H   0  0  0  0  0  0  0  0  0  0  0  0
   34.1788   40.6307   56.2539 H   0  0  0  0  0  0  0  0  0  0  0  0
   33.9850   36.7668   54.4180 H   0  0  0  0  0  0  0  0  0  0  0  0
  1  2  2  0  0  0  0
  2 22  1  0  0  0  0
  2  3  1  0  0  0  0
  3  8  2  0  0  0  0
  3  4  1  0  0  0  0
  4  5  2  0  0  0  0
  4 23  1  0  0  0  0
  5  6  1  0  0  0  0
  5 24  1  0  0  0  0
  6  7  2  0  0  0  0
  6 25  1  0  0  0  0
  7  8  1  0  0  0  0
  8  9  1  0  0  0  0
  9 10  1  0  0  0  0
 10 22  2  0  0  0  0
 10 11  1  0  0  0  0
 11 12  1  0  0  0  0
 11 13  2  0  0  0  0
 13 14  1  0  0  0  0
 13 26  1  0  0  0  0
 14 15  1  0  0  0  0
 14 21  2  0  0  0  0
 15 20  2  0  0  0  0
 15 16  1  0  0  0  0
 16 17  2  0  0  0  0
 17 18  1  0  0  0  0
 18 19  1  0  0  0  0
 18 20  1  0  0  0  0
 21 22  1  0  0  0  0
 21 27  1  0  0  0  0
M  END
$$$$
