ZINC000000021886      none
 OpenBabel11202420153D

 26 27  0  0  0  0  0  0  0  0999 V2000
   33.0568   34.1321   57.8692 C   0  0  0  0  0  0  0  0  0  0  0  0
   33.3355   35.3023   56.9614 C   0  0  0  0  0  0  0  0  0  0  0  0
   33.7814   35.2380   55.6825 C   0  0  0  0  0  0  0  0  0  0  0  0
   34.0786   33.9981   54.9353 C   0  0  0  0  0  0  0  0  0  0  0  0
   33.3942   33.7106   53.7532 C   0  0  0  0  0  0  0  0  0  0  0  0
   33.6716   32.5482   53.0639 C   0  0  0  0  0  0  0  0  0  0  0  0
   34.6308   31.6704   53.5374 C   0  0  0  0  0  0  0  0  0  0  0  0
   35.3185   31.9504   54.7043 C   0  0  0  0  0  0  0  0  0  0  0  0
   35.0509   33.1107   55.4056 C   0  0  0  0  0  0  0  0  0  0  0  0
   35.7230   33.3839   56.5453 F   0  0  0  0  0  0  0  0  0  0  0  0
   33.9172   36.5224   55.1959 N   0  0  0  0  0  0  0  0  0  0  0  0
   34.2240   36.7579   54.3062 H   0  0  0  0  0  0  0  0  0  0  0  0
   33.5486   37.4044   56.1623 C   0  0  0  0  0  0  0  0  0  0  0  0
   33.5461   38.7803   56.0484 N   0  0  0  0  0  0  0  0  0  0  0  0
   33.1802   36.6759   57.2881 C   0  0  0  0  0  0  0  0  0  0  0  0
   32.7304   37.2089   58.5388 C   0  0  0  0  0  0  0  0  0  0  0  0
   32.3735   37.6318   59.5309 N   0  0  0  0  0  0  0  0  0  0  0  0
   33.9600   33.8800   58.4247 H   0  0  0  0  0  0  0  0  0  0  0  0
   32.2622   34.3951   58.5675 H   0  0  0  0  0  0  0  0  0  0  0  0
   32.7465   33.2749   57.2718 H   0  0  0  0  0  0  0  0  0  0  0  0
   32.6455   34.3945   53.3815 H   0  0  0  0  0  0  0  0  0  0  0  0
   33.1389   32.3230   52.1517 H   0  0  0  0  0  0  0  0  0  0  0  0
   34.8437   30.7623   52.9929 H   0  0  0  0  0  0  0  0  0  0  0  0
   36.0665   31.2613   55.0680 H   0  0  0  0  0  0  0  0  0  0  0  0
   33.2688   39.3286   56.7989 H   0  0  0  0  0  0  0  0  0  0  0  0
   33.8215   39.1986   55.2177 H   0  0  0  0  0  0  0  0  0  0  0  0
  1  2  1  0  0  0  0
  1 18  1  0  0  0  0
  1 19  1  0  0  0  0
  1 20  1  0  0  0  0
  2 15  1  0  0  0  0
  2  3  2  0  0  0  0
  3  4  1  0  0  0  0
  3 11  1  0  0  0  0
  4  9  2  0  0  0  0
  4  5  1  0  0  0  0
  5  6  2  0  0  0  0
  5 21  1  0  0  0  0
  6  7  1  0  0  0  0
  6 22  1  0  0  0  0
  7  8  2  0  0  0  0
  7 23  1  0  0  0  0
  8  9  1  0  0  0  0
  8 24  1  0  0  0  0
  9 10  1  0  0  0  0
 11 12  1  0  0  0  0
 11 13  1  0  0  0  0
 13 14  1  0  0  0  0
 13 15  2  0  0  0  0
 14 25  1  0  0  0  0
 14 26  1  0  0  0  0
 15 16  1  0  0  0  0
 16 17  3  0  0  0  0
M  END
$$$$
