ZINC000000032650      none
 OpenBabel11202420153D

 44 47  0  0  0  0  0  0  0  0999 V2000
   29.5684   39.5736   64.4654 N   0  0  0  0  0  0  0  0  0  0  0  0
   30.6952   38.9164   64.9395 C   0  0  0  0  0  0  0  0  0  0  0  0
   31.0048   37.6416   64.5967 C   0  0  0  0  0  0  0  0  0  0  0  0
   30.2294   36.8337   63.7278 C   0  0  0  0  0  0  0  0  0  0  0  0
   29.3433   36.1307   64.1788 O   0  0  0  0  0  0  0  0  0  0  0  0
   30.4730   36.8434   62.4023 N   0  0  0  0  0  0  0  0  0  0  0  0
   31.5343   37.6892   61.8333 C   0  0  0  0  0  0  0  0  0  0  0  0
   32.4138   36.8109   60.9290 C   0  0  0  0  0  0  0  0  0  0  0  0
   31.5821   36.1212   59.9929 O   0  0  0  0  0  0  0  0  0  0  0  0
   30.6478   35.2206   60.5928 C   0  0  0  0  0  0  0  0  0  0  0  0
   29.6815   36.0132   61.4805 C   0  0  0  0  0  0  0  0  0  0  0  0
   32.4897   37.1246   65.3702 S   0  0  0  0  0  0  0  0  0  0  0  0
   32.6989   38.6731   66.1799 C   0  0  0  0  0  0  0  0  0  0  0  0
   33.6662   39.0831   67.0058 N   0  0  0  0  0  0  0  0  0  0  0  0
   33.6670   40.2876   67.5363 C   0  0  0  0  0  0  0  0  0  0  0  0
   32.6607   41.1846   67.2584 C   0  0  0  0  0  0  0  0  0  0  0  0
   31.6366   40.8313   66.4094 C   0  0  0  0  0  0  0  0  0  0  0  0
   31.6469   39.5333   65.8477 C   0  0  0  0  0  0  0  0  0  0  0  0
   32.6690   42.5615   67.8897 C   0  0  0  0  0  0  0  0  0  0  0  0
   33.7943   43.3799   67.2513 C   0  0  0  0  0  0  0  0  0  0  0  0
   35.1125   43.1230   67.9541 C   0  0  0  0  0  0  0  0  0  0  0  0
   35.6657   41.7252   67.7582 C   0  0  0  0  0  0  0  0  0  0  0  0
   34.7960   40.6854   68.4672 C   0  0  0  0  0  0  0  0  0  0  0  0
   28.9611   39.1200   63.8602 H   0  0  0  0  0  0  0  0  0  0  0  0
   29.3882   40.4865   64.7393 H   0  0  0  0  0  0  0  0  0  0  0  0
   31.0886   38.4932   61.2476 H   0  0  0  0  0  0  0  0  0  0  0  0
   32.1380   38.1110   62.6369 H   0  0  0  0  0  0  0  0  0  0  0  0
   32.9563   36.0867   61.5367 H   0  0  0  0  0  0  0  0  0  0  0  0
   33.1238   37.4393   60.3912 H   0  0  0  0  0  0  0  0  0  0  0  0
   31.1838   34.4906   61.1993 H   0  0  0  0  0  0  0  0  0  0  0  0
   30.0865   34.7048   59.8137 H   0  0  0  0  0  0  0  0  0  0  0  0
   29.0578   35.3246   62.0504 H   0  0  0  0  0  0  0  0  0  0  0  0
   29.0519   36.6513   60.8603 H   0  0  0  0  0  0  0  0  0  0  0  0
   30.8440   41.5276   66.1785 H   0  0  0  0  0  0  0  0  0  0  0  0
   32.8435   42.4728   68.9620 H   0  0  0  0  0  0  0  0  0  0  0  0
   31.7124   43.0521   67.7105 H   0  0  0  0  0  0  0  0  0  0  0  0
   33.5510   44.4401   67.3219 H   0  0  0  0  0  0  0  0  0  0  0  0
   33.8879   43.1028   66.2014 H   0  0  0  0  0  0  0  0  0  0  0  0
   35.8461   43.8400   67.5856 H   0  0  0  0  0  0  0  0  0  0  0  0
   34.9734   43.2908   69.0221 H   0  0  0  0  0  0  0  0  0  0  0  0
   35.6967   41.4989   66.6924 H   0  0  0  0  0  0  0  0  0  0  0  0
   36.6772   41.6810   68.1620 H   0  0  0  0  0  0  0  0  0  0  0  0
   35.3970   39.8090   68.7093 H   0  0  0  0  0  0  0  0  0  0  0  0
   34.3866   41.1131   69.3824 H   0  0  0  0  0  0  0  0  0  0  0  0
  1  2  1  0  0  0  0
  1 24  1  0  0  0  0
  1 25  1  0  0  0  0
  2 18  1  0  0  0  0
  2  3  2  0  0  0  0
  3  4  1  0  0  0  0
  3 12  1  0  0  0  0
  4  5  2  0  0  0  0
  4  6  1  0  0  0  0
  6 11  1  0  0  0  0
  6  7  1  0  0  0  0
  7  8  1  0  0  0  0
  7 26  1  0  0  0  0
  7 27  1  0  0  0  0
  8  9  1  0  0  0  0
  8 28  1  0  0  0  0
  8 29  1  0  0  0  0
  9 10  1  0  0  0  0
 10 11  1  0  0  0  0
 10 30  1  0  0  0  0
 10 31  1  0  0  0  0
 11 32  1  0  0  0  0
 11 33  1  0  0  0  0
 12 13  1  0  0  0  0
 13 18  2  0  0  0  0
 13 14  1  0  0  0  0
 14 15  2  0  0  0  0
 15 23  1  0  0  0  0
 15 16  1  0  0  0  0
 16 17  2  0  0  0  0
 16 19  1  0  0  0  0
 17 18  1  0  0  0  0
 17 34  1  0  0  0  0
 19 20  1  0  0  0  0
 19 35  1  0  0  0  0
 19 36  1  0  0  0  0
 20 21  1  0  0  0  0
 20 37  1  0  0  0  0
 20 38  1  0  0  0  0
 21 22  1  0  0  0  0
 21 39  1  0  0  0  0
 21 40  1  0  0  0  0
 22 23  1  0  0  0  0
 22 41  1  0  0  0  0
 22 42  1  0  0  0  0
 23 43  1  0  0  0  0
 23 44  1  0  0  0  0
M  END
$$$$
