ZINC000000056338      none
 OpenBabel11202420153D

 37 39  0  0  0  0  0  0  0  0999 V2000
   30.6119   32.2049   63.1686 Cl  0  0  0  0  0  0  0  0  0  0  0  0
   31.1298   33.4333   62.0564 C   0  0  0  0  0  0  0  0  0  0  0  0
   31.5015   33.0871   60.7685 C   0  0  0  0  0  0  0  0  0  0  0  0
   31.9094   34.0636   59.8806 C   0  0  0  0  0  0  0  0  0  0  0  0
   31.9558   35.3904   60.2836 C   0  0  0  0  0  0  0  0  0  0  0  0
   32.3613   36.3521   59.4129 O   0  0  0  0  0  0  0  0  0  0  0  0
   32.7253   35.9255   58.0985 C   0  0  0  0  0  0  0  0  0  0  0  0
   33.1445   37.1200   57.2808 C   0  0  0  0  0  0  0  0  0  0  0  0
   33.1313   38.3824   57.8440 C   0  0  0  0  0  0  0  0  0  0  0  0
   33.5163   39.4779   57.0943 C   0  0  0  0  0  0  0  0  0  0  0  0
   33.9145   39.3120   55.7806 C   0  0  0  0  0  0  0  0  0  0  0  0
   33.9277   38.0506   55.2165 C   0  0  0  0  0  0  0  0  0  0  0  0
   33.5428   36.9533   55.9666 C   0  0  0  0  0  0  0  0  0  0  0  0
   33.5587   35.3685   55.2584 Cl  0  0  0  0  0  0  0  0  0  0  0  0
   31.5825   35.7349   61.5742 C   0  0  0  0  0  0  0  0  0  0  0  0
   31.6262   37.1762   62.0125 C   0  0  0  0  0  0  0  0  0  0  0  0
   30.3979   37.5023   62.7415 N   0  0  0  0  0  0  0  0  0  0  0  0
   30.4188   38.4717   63.7458 C   0  0  0  0  0  0  0  0  0  0  0  0
   29.3693   38.8557   64.4787 N   0  0  0  0  0  0  0  0  0  0  0  0
   29.7376   39.7796   65.3294 C   0  0  0  0  0  0  0  0  0  0  0  0
   31.0479   40.0162   65.1512 N   0  0  0  0  0  0  0  0  0  0  0  0
   31.5944   40.6529   65.6378 H   0  0  0  0  0  0  0  0  0  0  0  0
   31.4708   39.1597   64.1218 N   0  0  0  0  0  0  0  0  0  0  0  0
   31.1702   34.7559   62.4577 C   0  0  0  0  0  0  0  0  0  0  0  0
   31.4688   32.0536   60.4563 H   0  0  0  0  0  0  0  0  0  0  0  0
   32.1954   33.7939   58.8748 H   0  0  0  0  0  0  0  0  0  0  0  0
   31.8713   35.4420   57.6239 H   0  0  0  0  0  0  0  0  0  0  0  0
   33.5535   35.2198   58.1618 H   0  0  0  0  0  0  0  0  0  0  0  0
   32.8243   38.5121   58.8713 H   0  0  0  0  0  0  0  0  0  0  0  0
   33.5058   40.4640   57.5347 H   0  0  0  0  0  0  0  0  0  0  0  0
   34.2149   40.1685   55.1953 H   0  0  0  0  0  0  0  0  0  0  0  0
   34.2388   37.9211   54.1904 H   0  0  0  0  0  0  0  0  0  0  0  0
   32.4869   37.3323   62.6626 H   0  0  0  0  0  0  0  0  0  0  0  0
   31.7106   37.8198   61.1369 H   0  0  0  0  0  0  0  0  0  0  0  0
   29.5702   37.0444   62.5264 H   0  0  0  0  0  0  0  0  0  0  0  0
   29.0976   40.2702   66.0479 H   0  0  0  0  0  0  0  0  0  0  0  0
   30.8798   35.0238   63.4629 H   0  0  0  0  0  0  0  0  0  0  0  0
  1  2  1  0  0  0  0
  2 24  2  0  0  0  0
  2  3  1  0  0  0  0
  3  4  2  0  0  0  0
  3 25  1  0  0  0  0
  4  5  1  0  0  0  0
  4 26  1  0  0  0  0
  5  6  1  0  0  0  0
  5 15  2  0  0  0  0
  6  7  1  0  0  0  0
  7  8  1  0  0  0  0
  7 27  1  0  0  0  0
  7 28  1  0  0  0  0
  8 13  2  0  0  0  0
  8  9  1  0  0  0  0
  9 10  2  0  0  0  0
  9 29  1  0  0  0  0
 10 11  1  0  0  0  0
 10 30  1  0  0  0  0
 11 12  2  0  0  0  0
 11 31  1  0  0  0  0
 12 13  1  0  0  0  0
 12 32  1  0  0  0  0
 13 14  1  0  0  0  0
 15 16  1  0  0  0  0
 15 24  1  0  0  0  0
 16 17  1  0  0  0  0
 16 33  1  0  0  0  0
 16 34  1  0  0  0  0
 17 18  1  0  0  0  0
 17 35  1  0  0  0  0
 18 23  2  0  0  0  0
 18 19  1  0  0  0  0
 19 20  2  0  0  0  0
 20 21  1  0  0  0  0
 20 36  1  0  0  0  0
 21 22  1  0  0  0  0
 21 23  1  0  0  0  0
 24 37  1  0  0  0  0
M  END
$$$$
