ZINC000000028359      none
 OpenBabel11202420163D

 34 35  0  0  0  0  0  0  0  0999 V2000
   32.3904   35.7685   60.6460 O   0  0  0  0  0  0  0  0  0  0  0  0
   31.8725   36.8682   60.6199 C   0  0  0  0  0  0  0  0  0  0  0  0
   31.9156   37.6068   59.4933 N   0  0  0  0  0  0  0  0  0  0  0  0
   32.5569   37.1079   58.3533 C   0  0  0  0  0  0  0  0  0  0  0  0
   32.5959   35.7398   58.1194 C   0  0  0  0  0  0  0  0  0  0  0  0
   33.2289   35.2506   56.9935 C   0  0  0  0  0  0  0  0  0  0  0  0
   33.8235   36.1215   56.0987 C   0  0  0  0  0  0  0  0  0  0  0  0
   33.7870   37.4844   56.3279 C   0  0  0  0  0  0  0  0  0  0  0  0
   33.1555   37.9807   57.4530 C   0  0  0  0  0  0  0  0  0  0  0  0
   33.1104   39.6921   57.7407 Cl  0  0  0  0  0  0  0  0  0  0  0  0
   31.2553   37.3485   61.7175 N   0  0  0  0  0  0  0  0  0  0  0  0
   31.2084   36.5457   62.9420 C   0  0  0  0  0  0  0  0  0  0  0  0
   29.9524   35.6721   62.9313 C   0  0  0  0  0  0  0  0  0  0  0  0
   29.9034   34.8336   64.2101 C   0  0  0  0  0  0  0  0  0  0  0  0
   29.8695   35.7605   65.4268 C   0  0  0  0  0  0  0  0  0  0  0  0
   31.1255   36.6341   65.4375 C   0  0  0  0  0  0  0  0  0  0  0  0
   31.1746   37.4727   64.1587 C   0  0  0  0  0  0  0  0  0  0  0  0
   31.5024   38.4841   59.4725 H   0  0  0  0  0  0  0  0  0  0  0  0
   32.1318   35.0588   58.8174 H   0  0  0  0  0  0  0  0  0  0  0  0
   33.2592   34.1864   56.8115 H   0  0  0  0  0  0  0  0  0  0  0  0
   34.3171   35.7361   55.2189 H   0  0  0  0  0  0  0  0  0  0  0  0
   34.2561   38.1618   55.6296 H   0  0  0  0  0  0  0  0  0  0  0  0
   30.8421   38.2260   61.6967 H   0  0  0  0  0  0  0  0  0  0  0  0
   32.0926   35.9103   62.9938 H   0  0  0  0  0  0  0  0  0  0  0  0
   29.0684   36.3075   62.8793 H   0  0  0  0  0  0  0  0  0  0  0  0
   29.9766   35.0116   62.0645 H   0  0  0  0  0  0  0  0  0  0  0  0
   30.7875   34.1981   64.2618 H   0  0  0  0  0  0  0  0  0  0  0  0
   29.0086   34.2112   64.2025 H   0  0  0  0  0  0  0  0  0  0  0  0
   29.8346   35.1631   66.3378 H   0  0  0  0  0  0  0  0  0  0  0  0
   28.9855   36.3960   65.3749 H   0  0  0  0  0  0  0  0  0  0  0  0
   32.0097   35.9987   65.4894 H   0  0  0  0  0  0  0  0  0  0  0  0
   31.1015   37.2946   66.3043 H   0  0  0  0  0  0  0  0  0  0  0  0
   32.0694   38.0951   64.1663 H   0  0  0  0  0  0  0  0  0  0  0  0
   30.2904   38.1081   64.1068 H   0  0  0  0  0  0  0  0  0  0  0  0
  1  2  2  0  0  0  0
  2  3  1  0  0  0  0
  2 11  1  0  0  0  0
  3  4  1  0  0  0  0
  3 18  1  0  0  0  0
  4  9  2  0  0  0  0
  4  5  1  0  0  0  0
  5  6  2  0  0  0  0
  5 19  1  0  0  0  0
  6  7  1  0  0  0  0
  6 20  1  0  0  0  0
  7  8  2  0  0  0  0
  7 21  1  0  0  0  0
  8  9  1  0  0  0  0
  8 22  1  0  0  0  0
  9 10  1  0  0  0  0
 11 12  1  0  0  0  0
 11 23  1  0  0  0  0
 12 17  1  0  0  0  0
 12 13  1  0  0  0  0
 12 24  1  0  0  0  0
 13 14  1  0  0  0  0
 13 25  1  0  0  0  0
 13 26  1  0  0  0  0
 14 15  1  0  0  0  0
 14 27  1  0  0  0  0
 14 28  1  0  0  0  0
 15 16  1  0  0  0  0
 15 29  1  0  0  0  0
 15 30  1  0  0  0  0
 16 17  1  0  0  0  0
 16 31  1  0  0  0  0
 16 32  1  0  0  0  0
 17 33  1  0  0  0  0
 17 34  1  0  0  0  0
M  END
$$$$
