ZINC000000024515      none
 OpenBabel11202420153D

 38 40  0  0  1  0  0  0  0  0999 V2000
   31.0390   41.3109   67.6402 C   0  0  0  0  0  0  0  0  0  0  0  0
   30.9135   40.0581   66.8123 C   0  0  0  0  0  0  0  0  0  0  0  0
   31.5847   39.9231   65.8110 O   0  0  0  0  0  0  0  0  0  0  0  0
   30.0554   39.0877   67.1843 N   0  0  0  0  0  0  0  0  0  0  0  0
   29.2286   39.2248   68.3954 C   0  0  0  0  0  0  0  0  0  0  0  0
   29.2351   37.8697   69.1170 C   0  0  0  0  0  0  0  0  0  0  0  0
   28.7286   36.8716   68.2281 O   0  0  0  0  0  0  0  0  0  0  0  0
   29.2549   36.8119   66.9765 C   0  0  0  0  0  0  0  0  0  0  0  0
   29.1236   35.6448   66.2344 C   0  0  0  0  0  0  0  0  0  0  0  0
   29.6439   35.5694   64.9603 C   0  0  0  0  0  0  0  0  0  0  0  0
   30.3074   36.6679   64.4075 C   0  0  0  0  0  0  0  0  0  0  0  0
   30.8622   36.5882   63.0438 C   0  0  0  0  0  0  0  0  0  0  0  0
   32.1301   36.7613   62.8631 N   0  0  0  0  0  0  0  0  0  0  0  0
   32.7001   36.7167   61.5881 N   0  0  0  0  0  0  0  0  0  0  0  0
   31.9257   36.8064   60.4901 C   0  0  0  0  0  0  0  0  0  0  0  0
   32.4170   36.6952   59.3865 O   0  0  0  0  0  0  0  0  0  0  0  0
   30.4439   37.0461   60.6404 C   0  0  0  0  0  0  0  0  0  0  0  0
   29.9406   36.3127   61.8854 C   0  0  2  0  0  0  0  0  0  0  0  0
   29.9150   35.2407   61.6892 H   0  0  0  0  0  0  0  0  0  0  0  0
   28.5317   36.8011   62.2282 C   0  0  0  0  0  0  0  0  0  0  0  0
   30.4425   37.8424   65.1522 C   0  0  0  0  0  0  0  0  0  0  0  0
   29.9188   37.9091   66.4299 C   0  0  0  0  0  0  0  0  0  0  0  0
   31.8110   41.1707   68.3967 H   0  0  0  0  0  0  0  0  0  0  0  0
   31.3098   42.1470   66.9953 H   0  0  0  0  0  0  0  0  0  0  0  0
   30.0869   41.5216   68.1274 H   0  0  0  0  0  0  0  0  0  0  0  0
   28.2086   39.4917   68.1188 H   0  0  0  0  0  0  0  0  0  0  0  0
   29.6480   39.9922   69.0460 H   0  0  0  0  0  0  0  0  0  0  0  0
   30.2543   37.6159   69.4086 H   0  0  0  0  0  0  0  0  0  0  0  0
   28.6025   37.9245   70.0031 H   0  0  0  0  0  0  0  0  0  0  0  0
   28.6116   34.7932   66.6575 H   0  0  0  0  0  0  0  0  0  0  0  0
   29.5384   34.6595   64.3880 H   0  0  0  0  0  0  0  0  0  0  0  0
   33.6610   36.6238   61.4929 H   0  0  0  0  0  0  0  0  0  0  0  0
   29.9228   36.6696   59.7601 H   0  0  0  0  0  0  0  0  0  0  0  0
   30.2567   38.1147   60.7464 H   0  0  0  0  0  0  0  0  0  0  0  0
   28.5794   37.8336   62.5745 H   0  0  0  0  0  0  0  0  0  0  0  0
   27.9015   36.7444   61.3408 H   0  0  0  0  0  0  0  0  0  0  0  0
   28.1107   36.1736   63.0136 H   0  0  0  0  0  0  0  0  0  0  0  0
   30.9546   38.6952   64.7313 H   0  0  0  0  0  0  0  0  0  0  0  0
  1  2  1  0  0  0  0
  1 23  1  0  0  0  0
  1 24  1  0  0  0  0
  1 25  1  0  0  0  0
  2  3  2  0  0  0  0
  2  4  1  0  0  0  0
  4 22  1  0  0  0  0
  4  5  1  0  0  0  0
  5  6  1  0  0  0  0
  5 26  1  0  0  0  0
  5 27  1  0  0  0  0
  6  7  1  0  0  0  0
  6 28  1  0  0  0  0
  6 29  1  0  0  0  0
  7  8  1  0  0  0  0
  8 22  2  0  0  0  0
  8  9  1  0  0  0  0
  9 10  2  0  0  0  0
  9 30  1  0  0  0  0
 10 11  1  0  0  0  0
 10 31  1  0  0  0  0
 11 12  1  0  0  0  0
 11 21  2  0  0  0  0
 12 18  1  0  0  0  0
 12 13  2  0  0  0  0
 13 14  1  0  0  0  0
 14 15  1  0  0  0  0
 14 32  1  0  0  0  0
 15 16  2  0  0  0  0
 15 17  1  0  0  0  0
 17 18  1  0  0  0  0
 17 33  1  0  0  0  0
 17 34  1  0  0  0  0
 18 19  1  6  0  0  0
 18 20  1  0  0  0  0
 20 35  1  0  0  0  0
 20 36  1  0  0  0  0
 20 37  1  0  0  0  0
 21 22  1  0  0  0  0
 21 38  1  0  0  0  0
M  END
$$$$
