ZINC000000032427      none
 OpenBabel11202420153D

 41 43  0  0  0  0  0  0  0  0999 V2000
   32.5669   33.9226   58.4929 C   0  0  0  0  0  0  0  0  0  0  0  0
   32.2375   35.1678   59.1119 O   0  0  0  0  0  0  0  0  0  0  0  0
   32.5518   36.3000   58.4270 C   0  0  0  0  0  0  0  0  0  0  0  0
   33.1630   36.2142   57.1870 C   0  0  0  0  0  0  0  0  0  0  0  0
   33.4816   37.3662   56.4916 C   0  0  0  0  0  0  0  0  0  0  0  0
   33.1917   38.6060   57.0304 C   0  0  0  0  0  0  0  0  0  0  0  0
   32.5818   38.7003   58.2672 C   0  0  0  0  0  0  0  0  0  0  0  0
   32.2593   37.5489   58.9707 C   0  0  0  0  0  0  0  0  0  0  0  0
   31.6421   37.6417   60.2234 N   0  0  0  0  0  0  0  0  0  0  0  0
   32.5069   37.0949   61.2784 C   0  0  0  0  0  0  0  0  0  0  0  0
   31.8317   37.2869   62.6384 C   0  0  0  0  0  0  0  0  0  0  0  0
   30.5243   36.6157   62.6324 N   0  0  0  0  0  0  0  0  0  0  0  0
   29.9104   36.7080   63.8789 C   0  0  0  0  0  0  0  0  0  0  0  0
   29.6198   37.9571   64.4189 C   0  0  0  0  0  0  0  0  0  0  0  0
   29.0124   38.0523   65.6506 C   0  0  0  0  0  0  0  0  0  0  0  0
   28.6876   36.8923   66.3600 C   0  0  0  0  0  0  0  0  0  0  0  0
   28.0554   36.9880   67.6413 C   0  0  0  0  0  0  0  0  0  0  0  0
   27.5538   37.0640   68.6576 N   0  0  0  0  0  0  0  0  0  0  0  0
   28.9810   35.6384   65.8156 C   0  0  0  0  0  0  0  0  0  0  0  0
   29.5834   35.5501   64.5798 C   0  0  0  0  0  0  0  0  0  0  0  0
   29.9415   33.9939   63.8989 Cl  0  0  0  0  0  0  0  0  0  0  0  0
   29.6596   37.1626   61.5775 C   0  0  0  0  0  0  0  0  0  0  0  0
   30.3348   36.9706   60.2176 C   0  0  0  0  0  0  0  0  0  0  0  0
   33.6427   33.8739   58.3246 H   0  0  0  0  0  0  0  0  0  0  0  0
   32.2633   33.1021   59.1431 H   0  0  0  0  0  0  0  0  0  0  0  0
   32.0459   33.8420   57.5390 H   0  0  0  0  0  0  0  0  0  0  0  0
   33.3906   35.2473   56.7631 H   0  0  0  0  0  0  0  0  0  0  0  0
   33.9540   37.2971   55.5229 H   0  0  0  0  0  0  0  0  0  0  0  0
   33.4421   39.5029   56.4834 H   0  0  0  0  0  0  0  0  0  0  0  0
   32.3568   39.6700   58.6860 H   0  0  0  0  0  0  0  0  0  0  0  0
   32.6701   36.0320   61.1002 H   0  0  0  0  0  0  0  0  0  0  0  0
   33.4640   37.6164   61.2706 H   0  0  0  0  0  0  0  0  0  0  0  0
   31.6932   38.3513   62.8286 H   0  0  0  0  0  0  0  0  0  0  0  0
   32.4580   36.8564   63.4197 H   0  0  0  0  0  0  0  0  0  0  0  0
   29.8707   38.8532   63.8706 H   0  0  0  0  0  0  0  0  0  0  0  0
   28.7873   39.0223   66.0687 H   0  0  0  0  0  0  0  0  0  0  0  0
   28.7315   34.7403   66.3610 H   0  0  0  0  0  0  0  0  0  0  0  0
   29.4965   38.2254   61.7556 H   0  0  0  0  0  0  0  0  0  0  0  0
   28.7022   36.6414   61.5852 H   0  0  0  0  0  0  0  0  0  0  0  0
   29.7084   37.4013   59.4365 H   0  0  0  0  0  0  0  0  0  0  0  0
   30.4733   35.9063   60.0270 H   0  0  0  0  0  0  0  0  0  0  0  0
  1  2  1  0  0  0  0
  1 24  1  0  0  0  0
  1 25  1  0  0  0  0
  1 26  1  0  0  0  0
  2  3  1  0  0  0  0
  3  8  2  0  0  0  0
  3  4  1  0  0  0  0
  4  5  2  0  0  0  0
  4 27  1  0  0  0  0
  5  6  1  0  0  0  0
  5 28  1  0  0  0  0
  6  7  2  0  0  0  0
  6 29  1  0  0  0  0
  7  8  1  0  0  0  0
  7 30  1  0  0  0  0
  8  9  1  0  0  0  0
  9 23  1  0  0  0  0
  9 10  1  0  0  0  0
 10 11  1  0  0  0  0
 10 31  1  0  0  0  0
 10 32  1  0  0  0  0
 11 12  1  0  0  0  0
 11 33  1  0  0  0  0
 11 34  1  0  0  0  0
 12 13  1  0  0  0  0
 12 22  1  0  0  0  0
 13 20  2  0  0  0  0
 13 14  1  0  0  0  0
 14 15  2  0  0  0  0
 14 35  1  0  0  0  0
 15 16  1  0  0  0  0
 15 36  1  0  0  0  0
 16 17  1  0  0  0  0
 16 19  2  0  0  0  0
 17 18  3  0  0  0  0
 19 20  1  0  0  0  0
 19 37  1  0  0  0  0
 20 21  1  0  0  0  0
 22 23  1  0  0  0  0
 22 38  1  0  0  0  0
 22 39  1  0  0  0  0
 23 40  1  0  0  0  0
 23 41  1  0  0  0  0
M  END
$$$$
