ZINC000000054669      none
 OpenBabel11202420153D

 31 32  0  0  1  0  0  0  0  0999 V2000
   29.8579   35.3807   63.3911 C   0  0  0  0  0  0  0  0  0  0  0  0
   30.9958   35.1796   62.4906 N   0  0  0  0  0  0  0  0  0  0  0  0
   31.7772   33.9426   62.5628 C   0  0  0  0  0  0  0  0  0  0  0  0
   31.3356   36.1673   61.5633 C   0  0  0  0  0  0  0  0  0  0  0  0
   30.4183   36.5599   60.5968 C   0  0  0  0  0  0  0  0  0  0  0  0
   30.7573   37.5371   59.6817 C   0  0  0  0  0  0  0  0  0  0  0  0
   32.0085   38.1245   59.7268 C   0  0  0  0  0  0  0  0  0  0  0  0
   32.3748   39.1905   58.7266 C   0  0  1  0  0  0  0  0  0  0  0  0
   31.4779   39.7343   58.4301 H   0  0  0  0  0  0  0  0  0  0  0  0
   33.3083   40.0972   59.3171 O   0  0  0  0  0  0  0  0  0  0  0  0
   32.9969   38.5484   57.5134 C   0  0  0  0  0  0  0  0  0  0  0  0
   33.1923   37.2389   57.3515 C   0  0  0  0  0  0  0  0  0  0  0  0
   33.7794   36.8810   56.1500 C   0  0  0  0  0  0  0  0  0  0  0  0
   34.0689   37.9006   55.3401 C   0  0  0  0  0  0  0  0  0  0  0  0
   33.5831   39.4118   56.0975 S   0  0  0  0  0  0  0  0  0  0  0  0
   32.9260   37.7320   60.6840 C   0  0  0  0  0  0  0  0  0  0  0  0
   32.5914   36.7595   61.6057 C   0  0  0  0  0  0  0  0  0  0  0  0
   29.3491   36.3093   63.1320 H   0  0  0  0  0  0  0  0  0  0  0  0
   29.1637   34.5461   63.2914 H   0  0  0  0  0  0  0  0  0  0  0  0
   30.2138   35.4363   64.4198 H   0  0  0  0  0  0  0  0  0  0  0  0
   32.5949   34.0703   63.2722 H   0  0  0  0  0  0  0  0  0  0  0  0
   31.1350   33.1258   62.8920 H   0  0  0  0  0  0  0  0  0  0  0  0
   32.1833   33.7114   61.5781 H   0  0  0  0  0  0  0  0  0  0  0  0
   29.4412   36.1012   60.5609 H   0  0  0  0  0  0  0  0  0  0  0  0
   30.0445   37.8430   58.9303 H   0  0  0  0  0  0  0  0  0  0  0  0
   32.9743   40.5479   60.1048 H   0  0  0  0  0  0  0  0  0  0  0  0
   32.9115   36.5128   58.0999 H   0  0  0  0  0  0  0  0  0  0  0  0
   33.9905   35.8543   55.8898 H   0  0  0  0  0  0  0  0  0  0  0  0
   34.5305   37.8116   54.3678 H   0  0  0  0  0  0  0  0  0  0  0  0
   33.9038   38.1894   60.7134 H   0  0  0  0  0  0  0  0  0  0  0  0
   33.3069   36.4564   62.3558 H   0  0  0  0  0  0  0  0  0  0  0  0
  1  2  1  0  0  0  0
  1 18  1  0  0  0  0
  1 19  1  0  0  0  0
  1 20  1  0  0  0  0
  2  3  1  0  0  0  0
  2  4  1  0  0  0  0
  3 21  1  0  0  0  0
  3 22  1  0  0  0  0
  3 23  1  0  0  0  0
  4 17  2  0  0  0  0
  4  5  1  0  0  0  0
  5  6  2  0  0  0  0
  5 24  1  0  0  0  0
  6  7  1  0  0  0  0
  6 25  1  0  0  0  0
  7  8  1  0  0  0  0
  7 16  2  0  0  0  0
  8  9  1  6  0  0  0
  8 10  1  0  0  0  0
  8 11  1  0  0  0  0
 10 26  1  0  0  0  0
 11 15  1  0  0  0  0
 11 12  2  0  0  0  0
 12 13  1  0  0  0  0
 12 27  1  0  0  0  0
 13 14  2  0  0  0  0
 13 28  1  0  0  0  0
 14 15  1  0  0  0  0
 14 29  1  0  0  0  0
 16 17  1  0  0  0  0
 16 30  1  0  0  0  0
 17 31  1  0  0  0  0
M  END
$$$$
