ZINC000000014122      none
 OpenBabel11202420153D

 37 39  0  0  1  0  0  0  0  0999 V2000
   33.3209   40.2317   58.6334 C   0  0  0  0  0  0  0  0  0  0  0  0
   32.8476   39.0465   59.2766 O   0  0  0  0  0  0  0  0  0  0  0  0
   32.8610   37.9007   58.5460 C   0  0  0  0  0  0  0  0  0  0  0  0
   33.3211   37.9229   57.2400 C   0  0  0  0  0  0  0  0  0  0  0  0
   33.3348   36.7572   56.4990 C   0  0  0  0  0  0  0  0  0  0  0  0
   32.8874   35.5799   57.0632 C   0  0  0  0  0  0  0  0  0  0  0  0
   32.4325   35.5512   58.3753 C   0  0  0  0  0  0  0  0  0  0  0  0
   32.4123   36.7108   59.1159 C   0  0  0  0  0  0  0  0  0  0  0  0
   31.9113   36.7580   60.5356 C   0  0  0  0  0  0  0  0  0  0  0  0
   31.8702   35.3551   61.1379 C   0  0  1  0  0  0  0  0  0  0  0  0
   32.8857   34.9842   61.2757 H   0  0  0  0  0  0  0  0  0  0  0  0
   31.1793   35.3926   62.4292 N   0  0  0  0  0  0  0  0  0  0  0  0
   31.8792   35.5997   63.5622 C   0  0  0  0  0  0  0  0  0  0  0  0
   33.0810   35.7550   63.5127 O   0  0  0  0  0  0  0  0  0  0  0  0
   31.1684   35.6384   64.8905 C   0  0  0  0  0  0  0  0  0  0  0  0
   30.0212   36.6383   65.0491 C   0  0  0  0  0  0  0  0  0  0  0  0
   31.3554   36.8863   65.7558 C   0  0  0  0  0  0  0  0  0  0  0  0
   31.1114   34.4363   60.1729 C   0  0  0  0  0  0  0  0  0  0  0  0
   31.9728   34.2278   58.9290 C   0  0  0  0  0  0  0  0  0  0  0  0
   32.7092   40.4372   57.7550 H   0  0  0  0  0  0  0  0  0  0  0  0
   33.2563   41.0711   59.3257 H   0  0  0  0  0  0  0  0  0  0  0  0
   34.3580   40.0905   58.3292 H   0  0  0  0  0  0  0  0  0  0  0  0
   33.6673   38.8477   56.8026 H   0  0  0  0  0  0  0  0  0  0  0  0
   33.6905   36.7681   55.4793 H   0  0  0  0  0  0  0  0  0  0  0  0
   32.8951   34.6710   56.4799 H   0  0  0  0  0  0  0  0  0  0  0  0
   32.5755   37.3851   61.1304 H   0  0  0  0  0  0  0  0  0  0  0  0
   30.9083   37.1844   60.5488 H   0  0  0  0  0  0  0  0  0  0  0  0
   30.2180   35.2685   62.4688 H   0  0  0  0  0  0  0  0  0  0  0  0
   31.0759   34.6804   65.4022 H   0  0  0  0  0  0  0  0  0  0  0  0
   29.7806   37.2681   64.1927 H   0  0  0  0  0  0  0  0  0  0  0  0
   29.1736   36.3382   65.6651 H   0  0  0  0  0  0  0  0  0  0  0  0
   31.3855   36.7494   66.8367 H   0  0  0  0  0  0  0  0  0  0  0  0
   31.9928   37.6793   65.3644 H   0  0  0  0  0  0  0  0  0  0  0  0
   30.1660   34.9002   59.8913 H   0  0  0  0  0  0  0  0  0  0  0  0
   30.9207   33.4764   60.6526 H   0  0  0  0  0  0  0  0  0  0  0  0
   31.3894   33.7043   58.1715 H   0  0  0  0  0  0  0  0  0  0  0  0
   32.8429   33.6259   59.1911 H   0  0  0  0  0  0  0  0  0  0  0  0
  1  2  1  0  0  0  0
  1 20  1  0  0  0  0
  1 21  1  0  0  0  0
  1 22  1  0  0  0  0
  2  3  1  0  0  0  0
  3  8  2  0  0  0  0
  3  4  1  0  0  0  0
  4  5  2  0  0  0  0
  4 23  1  0  0  0  0
  5  6  1  0  0  0  0
  5 24  1  0  0  0  0
  6  7  2  0  0  0  0
  6 25  1  0  0  0  0
  7 19  1  0  0  0  0
  7  8  1  0  0  0  0
  8  9  1  0  0  0  0
  9 10  1  0  0  0  0
  9 26  1  0  0  0  0
  9 27  1  0  0  0  0
 10 11  1  1  0  0  0
 10 12  1  0  0  0  0
 10 18  1  0  0  0  0
 12 13  1  0  0  0  0
 12 28  1  0  0  0  0
 13 14  2  0  0  0  0
 13 15  1  0  0  0  0
 15 17  1  0  0  0  0
 15 16  1  0  0  0  0
 15 29  1  0  0  0  0
 16 17  1  0  0  0  0
 16 30  1  0  0  0  0
 16 31  1  0  0  0  0
 17 32  1  0  0  0  0
 17 33  1  0  0  0  0
 18 19  1  0  0  0  0
 18 34  1  0  0  0  0
 18 35  1  0  0  0  0
 19 36  1  0  0  0  0
 19 37  1  0  0  0  0
M  END
$$$$
