ZINC000000030875      none
 OpenBabel11202420163D

 32 32  0  0  1  0  0  0  0  0999 V2000
   32.4958   34.0434   54.3434 C   0  0  0  0  0  0  0  0  0  0  0  0
   33.9449   34.5134   54.2021 C   0  0  0  0  0  0  0  0  0  0  0  0
   34.0741   35.9383   54.7442 C   0  0  1  0  0  0  0  0  0  0  0  0
   35.1064   36.2732   54.6434 H   0  0  0  0  0  0  0  0  0  0  0  0
   33.1559   36.8707   53.9513 C   0  0  0  0  0  0  0  0  0  0  0  0
   33.6783   35.9606   56.1981 C   0  0  0  0  0  0  0  0  0  0  0  0
   33.8508   34.9786   56.8885 O   0  0  0  0  0  0  0  0  0  0  0  0
   33.1328   37.0718   56.7310 N   0  0  0  0  0  0  0  0  0  0  0  0
   32.7671   37.0924   58.0750 C   0  0  0  0  0  0  0  0  0  0  0  0
   32.3647   35.9232   58.7065 C   0  0  0  0  0  0  0  0  0  0  0  0
   32.0019   35.9460   60.0380 C   0  0  0  0  0  0  0  0  0  0  0  0
   32.0363   37.1318   60.7540 C   0  0  0  0  0  0  0  0  0  0  0  0
   32.4335   38.3017   60.1439 C   0  0  0  0  0  0  0  0  0  0  0  0
   32.8031   38.2945   58.7969 C   0  0  0  0  0  0  0  0  0  0  0  0
   33.2292   39.5435   58.1375 C   0  0  0  0  0  0  0  0  0  0  0  0
   33.2624   40.6962   58.8349 N   0  0  0  0  0  0  0  0  0  0  0  0
   33.5506   39.5329   56.9649 O   0  0  0  0  0  0  0  0  0  0  0  0
   32.4038   33.0282   53.9572 H   0  0  0  0  0  0  0  0  0  0  0  0
   32.2096   34.0595   55.3951 H   0  0  0  0  0  0  0  0  0  0  0  0
   31.8415   34.7077   53.7788 H   0  0  0  0  0  0  0  0  0  0  0  0
   34.2311   34.4974   53.1505 H   0  0  0  0  0  0  0  0  0  0  0  0
   34.5991   33.8492   54.7667 H   0  0  0  0  0  0  0  0  0  0  0  0
   32.1234   36.5358   54.0521 H   0  0  0  0  0  0  0  0  0  0  0  0
   33.2479   37.8860   54.3374 H   0  0  0  0  0  0  0  0  0  0  0  0
   33.4421   36.8547   52.8997 H   0  0  0  0  0  0  0  0  0  0  0  0
   32.9948   37.8573   56.1788 H   0  0  0  0  0  0  0  0  0  0  0  0
   32.3352   34.9949   58.1552 H   0  0  0  0  0  0  0  0  0  0  0  0
   31.6896   35.0339   60.5249 H   0  0  0  0  0  0  0  0  0  0  0  0
   31.7462   37.1399   61.7942 H   0  0  0  0  0  0  0  0  0  0  0  0
   32.4582   39.2234   60.7062 H   0  0  0  0  0  0  0  0  0  0  0  0
   33.0062   40.7047   59.7705 H   0  0  0  0  0  0  0  0  0  0  0  0
   33.5426   41.5175   58.4015 H   0  0  0  0  0  0  0  0  0  0  0  0
  1  2  1  0  0  0  0
  1 18  1  0  0  0  0
  1 19  1  0  0  0  0
  1 20  1  0  0  0  0
  2  3  1  0  0  0  0
  2 21  1  0  0  0  0
  2 22  1  0  0  0  0
  3  4  1  6  0  0  0
  3  5  1  0  0  0  0
  3  6  1  0  0  0  0
  5 23  1  0  0  0  0
  5 24  1  0  0  0  0
  5 25  1  0  0  0  0
  6  7  2  0  0  0  0
  6  8  1  0  0  0  0
  8  9  1  0  0  0  0
  8 26  1  0  0  0  0
  9 14  2  0  0  0  0
  9 10  1  0  0  0  0
 10 11  2  0  0  0  0
 10 27  1  0  0  0  0
 11 12  1  0  0  0  0
 11 28  1  0  0  0  0
 12 13  2  0  0  0  0
 12 29  1  0  0  0  0
 13 14  1  0  0  0  0
 13 30  1  0  0  0  0
 14 15  1  0  0  0  0
 15 16  1  0  0  0  0
 15 17  2  0  0  0  0
 16 31  1  0  0  0  0
 16 32  1  0  0  0  0
M  END
$$$$
