ZINC000000002435      none
 OpenBabel11202420153D

 27 28  0  0  0  0  0  0  0  0999 V2000
   31.5531   38.0770   62.6543 C   0  0  0  0  0  0  0  0  0  0  0  0
   31.9859   37.7729   61.2432 C   0  0  0  0  0  0  0  0  0  0  0  0
   31.9425   36.6343   60.8275 O   0  0  0  0  0  0  0  0  0  0  0  0
   32.4212   38.7662   60.4429 N   0  0  0  0  0  0  0  0  0  0  0  0
   32.8226   38.4842   59.1344 C   0  0  0  0  0  0  0  0  0  0  0  0
   33.2689   39.5231   58.3084 C   0  0  0  0  0  0  0  0  0  0  0  0
   33.6641   39.2760   57.0314 C   0  0  0  0  0  0  0  0  0  0  0  0
   33.6270   37.9644   56.5290 C   0  0  0  0  0  0  0  0  0  0  0  0
   34.0288   37.6759   55.2118 C   0  0  0  0  0  0  0  0  0  0  0  0
   34.5137   38.7683   54.2938 C   0  0  0  0  0  0  0  0  0  0  0  0
   33.9670   36.3787   54.7874 C   0  0  0  0  0  0  0  0  0  0  0  0
   33.5152   35.3848   55.6521 C   0  0  0  0  0  0  0  0  0  0  0  0
   33.1409   35.6565   56.8791 N   0  0  0  0  0  0  0  0  0  0  0  0
   33.1774   36.9051   57.3568 C   0  0  0  0  0  0  0  0  0  0  0  0
   32.7702   37.1885   58.6705 C   0  0  0  0  0  0  0  0  0  0  0  0
   31.6616   39.1445   62.8455 H   0  0  0  0  0  0  0  0  0  0  0  0
   30.5100   37.7886   62.7845 H   0  0  0  0  0  0  0  0  0  0  0  0
   32.1747   37.5176   63.3534 H   0  0  0  0  0  0  0  0  0  0  0  0
   32.4558   39.6768   60.7753 H   0  0  0  0  0  0  0  0  0  0  0  0
   33.2991   40.5328   58.6903 H   0  0  0  0  0  0  0  0  0  0  0  0
   34.0056   40.0863   56.4042 H   0  0  0  0  0  0  0  0  0  0  0  0
   35.5929   38.8791   54.3994 H   0  0  0  0  0  0  0  0  0  0  0  0
   34.2744   38.5092   53.2624 H   0  0  0  0  0  0  0  0  0  0  0  0
   34.0248   39.7066   54.5555 H   0  0  0  0  0  0  0  0  0  0  0  0
   34.2679   36.1242   53.7819 H   0  0  0  0  0  0  0  0  0  0  0  0
   33.4714   34.3639   55.3028 H   0  0  0  0  0  0  0  0  0  0  0  0
   32.4243   36.3942   59.3154 H   0  0  0  0  0  0  0  0  0  0  0  0
  1  2  1  0  0  0  0
  1 16  1  0  0  0  0
  1 17  1  0  0  0  0
  1 18  1  0  0  0  0
  2  3  2  0  0  0  0
  2  4  1  0  0  0  0
  4  5  1  0  0  0  0
  4 19  1  0  0  0  0
  5 15  2  0  0  0  0
  5  6  1  0  0  0  0
  6  7  2  0  0  0  0
  6 20  1  0  0  0  0
  7  8  1  0  0  0  0
  7 21  1  0  0  0  0
  8 14  2  0  0  0  0
  8  9  1  0  0  0  0
  9 10  1  0  0  0  0
  9 11  2  0  0  0  0
 10 22  1  0  0  0  0
 10 23  1  0  0  0  0
 10 24  1  0  0  0  0
 11 12  1  0  0  0  0
 11 25  1  0  0  0  0
 12 13  2  0  0  0  0
 12 26  1  0  0  0  0
 13 14  1  0  0  0  0
 14 15  1  0  0  0  0
 15 27  1  0  0  0  0
M  END
$$$$
