ZINC000000031584      none
 OpenBabel11202420163D

 30 32  0  0  0  0  0  0  0  0999 V2000
   32.0991   33.9012   60.4648 C   0  0  0  0  0  0  0  0  0  0  0  0
   32.3701   34.9209   59.3888 C   0  0  0  0  0  0  0  0  0  0  0  0
   32.8978   34.5150   58.2740 N   0  0  0  0  0  0  0  0  0  0  0  0
   33.1701   35.3753   57.2613 C   0  0  0  0  0  0  0  0  0  0  0  0
   33.7323   34.9380   56.0601 C   0  0  0  0  0  0  0  0  0  0  0  0
   33.9960   35.8468   55.0602 C   0  0  0  0  0  0  0  0  0  0  0  0
   33.7012   37.1937   55.2267 C   0  0  0  0  0  0  0  0  0  0  0  0
   33.1416   37.6486   56.4005 C   0  0  0  0  0  0  0  0  0  0  0  0
   32.8711   36.7459   57.4271 C   0  0  0  0  0  0  0  0  0  0  0  0
   32.2748   37.1733   58.7010 C   0  0  0  0  0  0  0  0  0  0  0  0
   31.9941   38.3397   58.9079 O   0  0  0  0  0  0  0  0  0  0  0  0
   32.0501   36.2199   59.6349 N   0  0  0  0  0  0  0  0  0  0  0  0
   31.4831   36.5741   60.8665 C   0  0  0  0  0  0  0  0  0  0  0  0
   32.2989   36.9401   61.9281 C   0  0  0  0  0  0  0  0  0  0  0  0
   31.7362   37.2896   63.1425 C   0  0  0  0  0  0  0  0  0  0  0  0
   32.5296   37.6464   64.1761 F   0  0  0  0  0  0  0  0  0  0  0  0
   30.3603   37.2747   63.2995 C   0  0  0  0  0  0  0  0  0  0  0  0
   29.5452   36.9105   62.2440 C   0  0  0  0  0  0  0  0  0  0  0  0
   30.1019   36.5651   61.0258 C   0  0  0  0  0  0  0  0  0  0  0  0
   29.3044   36.2148   59.9930 F   0  0  0  0  0  0  0  0  0  0  0  0
   32.4085   32.9154   60.1176 H   0  0  0  0  0  0  0  0  0  0  0  0
   32.6594   34.1625   61.3625 H   0  0  0  0  0  0  0  0  0  0  0  0
   31.0334   33.8881   60.6928 H   0  0  0  0  0  0  0  0  0  0  0  0
   33.9619   33.8924   55.9175 H   0  0  0  0  0  0  0  0  0  0  0  0
   34.4346   35.5075   54.1334 H   0  0  0  0  0  0  0  0  0  0  0  0
   33.9122   37.8905   54.4289 H   0  0  0  0  0  0  0  0  0  0  0  0
   32.9145   38.6971   56.5242 H   0  0  0  0  0  0  0  0  0  0  0  0
   33.3719   36.9523   61.8060 H   0  0  0  0  0  0  0  0  0  0  0  0
   29.9232   37.5483   64.2485 H   0  0  0  0  0  0  0  0  0  0  0  0
   28.4726   36.8998   62.3695 H   0  0  0  0  0  0  0  0  0  0  0  0
  1  2  1  0  0  0  0
  1 21  1  0  0  0  0
  1 22  1  0  0  0  0
  1 23  1  0  0  0  0
  2 12  1  0  0  0  0
  2  3  2  0  0  0  0
  3  4  1  0  0  0  0
  4  9  2  0  0  0  0
  4  5  1  0  0  0  0
  5  6  2  0  0  0  0
  5 24  1  0  0  0  0
  6  7  1  0  0  0  0
  6 25  1  0  0  0  0
  7  8  2  0  0  0  0
  7 26  1  0  0  0  0
  8  9  1  0  0  0  0
  8 27  1  0  0  0  0
  9 10  1  0  0  0  0
 10 11  2  0  0  0  0
 10 12  1  0  0  0  0
 12 13  1  0  0  0  0
 13 19  2  0  0  0  0
 13 14  1  0  0  0  0
 14 15  2  0  0  0  0
 14 28  1  0  0  0  0
 15 16  1  0  0  0  0
 15 17  1  0  0  0  0
 17 18  2  0  0  0  0
 17 29  1  0  0  0  0
 18 19  1  0  0  0  0
 18 30  1  0  0  0  0
 19 20  1  0  0  0  0
M  END
$$$$
