ZINC000000027609      none
 OpenBabel11202420153D

 32 33  0  0  0  0  0  0  0  0999 V2000
   30.8716   38.9767   64.0723 C   0  0  0  0  0  0  0  0  0  0  0  0
   31.6904   37.8527   63.6545 O   0  0  0  0  0  0  0  0  0  0  0  0
   31.0475   36.7707   63.1879 C   0  0  0  0  0  0  0  0  0  0  0  0
   29.8406   36.7629   63.1305 O   0  0  0  0  0  0  0  0  0  0  0  0
   31.8310   35.5654   62.7356 C   0  0  0  0  0  0  0  0  0  0  0  0
   31.5327   35.2873   61.2610 C   0  0  0  0  0  0  0  0  0  0  0  0
   31.9288   36.4834   60.4340 C   0  0  0  0  0  0  0  0  0  0  0  0
   31.8794   37.5959   60.9144 O   0  0  0  0  0  0  0  0  0  0  0  0
   32.3382   36.3167   59.1608 N   0  0  0  0  0  0  0  0  0  0  0  0
   32.4402   35.0268   58.4732 C   0  0  0  0  0  0  0  0  0  0  0  0
   32.9470   35.3619   57.0609 C   0  0  0  0  0  0  0  0  0  0  0  0
   33.0979   36.8665   57.0577 C   0  0  0  0  0  0  0  0  0  0  0  0
   33.5162   37.7330   56.0658 C   0  0  0  0  0  0  0  0  0  0  0  0
   33.5701   39.0925   56.3089 C   0  0  0  0  0  0  0  0  0  0  0  0
   33.2040   39.5846   57.5485 C   0  0  0  0  0  0  0  0  0  0  0  0
   32.7857   38.7241   58.5408 C   0  0  0  0  0  0  0  0  0  0  0  0
   32.7287   37.3494   58.3027 C   0  0  0  0  0  0  0  0  0  0  0  0
   30.2059   38.6624   64.8761 H   0  0  0  0  0  0  0  0  0  0  0  0
   31.5144   39.7824   64.4271 H   0  0  0  0  0  0  0  0  0  0  0  0
   30.2801   39.3292   63.2274 H   0  0  0  0  0  0  0  0  0  0  0  0
   31.5444   34.7005   63.3336 H   0  0  0  0  0  0  0  0  0  0  0  0
   32.8967   35.7568   62.8609 H   0  0  0  0  0  0  0  0  0  0  0  0
   30.4670   35.0959   61.1356 H   0  0  0  0  0  0  0  0  0  0  0  0
   32.0994   34.4157   60.9337 H   0  0  0  0  0  0  0  0  0  0  0  0
   31.4624   34.5480   58.4204 H   0  0  0  0  0  0  0  0  0  0  0  0
   33.1516   34.3798   58.9866 H   0  0  0  0  0  0  0  0  0  0  0  0
   32.2185   35.0512   56.3120 H   0  0  0  0  0  0  0  0  0  0  0  0
   33.9090   34.8828   56.8786 H   0  0  0  0  0  0  0  0  0  0  0  0
   33.8020   37.3469   55.0985 H   0  0  0  0  0  0  0  0  0  0  0  0
   33.8972   39.7688   55.5331 H   0  0  0  0  0  0  0  0  0  0  0  0
   33.2454   40.6468   57.7395 H   0  0  0  0  0  0  0  0  0  0  0  0
   32.4967   39.1153   59.5050 H   0  0  0  0  0  0  0  0  0  0  0  0
  1  2  1  0  0  0  0
  1 18  1  0  0  0  0
  1 19  1  0  0  0  0
  1 20  1  0  0  0  0
  2  3  1  0  0  0  0
  3  4  2  0  0  0  0
  3  5  1  0  0  0  0
  5  6  1  0  0  0  0
  5 21  1  0  0  0  0
  5 22  1  0  0  0  0
  6  7  1  0  0  0  0
  6 23  1  0  0  0  0
  6 24  1  0  0  0  0
  7  8  2  0  0  0  0
  7  9  1  0  0  0  0
  9 17  1  0  0  0  0
  9 10  1  0  0  0  0
 10 11  1  0  0  0  0
 10 25  1  0  0  0  0
 10 26  1  0  0  0  0
 11 12  1  0  0  0  0
 11 27  1  0  0  0  0
 11 28  1  0  0  0  0
 12 17  2  0  0  0  0
 12 13  1  0  0  0  0
 13 14  2  0  0  0  0
 13 29  1  0  0  0  0
 14 15  1  0  0  0  0
 14 30  1  0  0  0  0
 15 16  2  0  0  0  0
 15 31  1  0  0  0  0
 16 17  1  0  0  0  0
 16 32  1  0  0  0  0
M  END
$$$$
