ZINC000000029521      none
 OpenBabel11202420163D

 36 37  0  0  0  0  0  0  0  0999 V2000
   31.5363   33.8995   59.2726 C   0  0  0  0  0  0  0  0  0  0  0  0
   31.5793   35.0791   60.0782 O   0  0  0  0  0  0  0  0  0  0  0  0
   32.0419   36.2135   59.4876 C   0  0  0  0  0  0  0  0  0  0  0  0
   32.4448   36.1918   58.1627 C   0  0  0  0  0  0  0  0  0  0  0  0
   32.9145   37.3461   57.5633 C   0  0  0  0  0  0  0  0  0  0  0  0
   32.9835   38.5245   58.2832 C   0  0  0  0  0  0  0  0  0  0  0  0
   32.5833   38.5546   59.6059 C   0  0  0  0  0  0  0  0  0  0  0  0
   32.1111   37.4005   60.2138 C   0  0  0  0  0  0  0  0  0  0  0  0
   31.7057   37.4283   61.5532 N   0  0  0  0  0  0  0  0  0  0  0  0
   32.5690   36.5765   62.3822 C   0  0  0  0  0  0  0  0  0  0  0  0
   32.2095   36.7740   63.8587 C   0  0  0  0  0  0  0  0  0  0  0  0
   30.7662   36.5437   64.0229 N   0  0  0  0  0  0  0  0  0  0  0  0
   30.1975   35.5051   65.1806 S   0  0  0  0  0  0  0  0  0  0  0  0
   30.1228   33.8954   64.3475 C   0  0  0  0  0  0  0  0  0  0  0  0
   31.2098   35.5038   66.1780 O   0  0  0  0  0  0  0  0  0  0  0  0
   28.8890   35.9804   65.4655 O   0  0  0  0  0  0  0  0  0  0  0  0
   29.8413   37.2605   63.1319 C   0  0  0  0  0  0  0  0  0  0  0  0
   30.2940   37.0439   61.6841 C   0  0  0  0  0  0  0  0  0  0  0  0
   31.1488   33.0698   59.8638 H   0  0  0  0  0  0  0  0  0  0  0  0
   30.8859   34.0690   58.4144 H   0  0  0  0  0  0  0  0  0  0  0  0
   32.5413   33.6600   58.9252 H   0  0  0  0  0  0  0  0  0  0  0  0
   32.3919   35.2730   57.5972 H   0  0  0  0  0  0  0  0  0  0  0  0
   33.2326   37.3262   56.5314 H   0  0  0  0  0  0  0  0  0  0  0  0
   33.3513   39.4235   57.8110 H   0  0  0  0  0  0  0  0  0  0  0  0
   32.6379   39.4764   60.1659 H   0  0  0  0  0  0  0  0  0  0  0  0
   32.4205   35.5320   62.1082 H   0  0  0  0  0  0  0  0  0  0  0  0
   33.6118   36.8502   62.2220 H   0  0  0  0  0  0  0  0  0  0  0  0
   32.4548   37.7917   64.1623 H   0  0  0  0  0  0  0  0  0  0  0  0
   32.7656   36.0649   64.4719 H   0  0  0  0  0  0  0  0  0  0  0  0
   31.1194   33.6170   64.0051 H   0  0  0  0  0  0  0  0  0  0  0  0
   29.7543   33.1424   65.0442 H   0  0  0  0  0  0  0  0  0  0  0  0
   29.4497   33.9597   63.4925 H   0  0  0  0  0  0  0  0  0  0  0  0
   29.8589   38.3250   63.3658 H   0  0  0  0  0  0  0  0  0  0  0  0
   28.8304   36.8740   63.2612 H   0  0  0  0  0  0  0  0  0  0  0  0
   29.6869   37.6565   61.0176 H   0  0  0  0  0  0  0  0  0  0  0  0
   30.1772   35.9931   61.4194 H   0  0  0  0  0  0  0  0  0  0  0  0
  1  2  1  0  0  0  0
  1 19  1  0  0  0  0
  1 20  1  0  0  0  0
  1 21  1  0  0  0  0
  2  3  1  0  0  0  0
  3  8  2  0  0  0  0
  3  4  1  0  0  0  0
  4  5  2  0  0  0  0
  4 22  1  0  0  0  0
  5  6  1  0  0  0  0
  5 23  1  0  0  0  0
  6  7  2  0  0  0  0
  6 24  1  0  0  0  0
  7  8  1  0  0  0  0
  7 25  1  0  0  0  0
  8  9  1  0  0  0  0
  9 18  1  0  0  0  0
  9 10  1  0  0  0  0
 10 11  1  0  0  0  0
 10 26  1  0  0  0  0
 10 27  1  0  0  0  0
 11 12  1  0  0  0  0
 11 28  1  0  0  0  0
 11 29  1  0  0  0  0
 12 13  1  0  0  0  0
 12 17  1  0  0  0  0
 13 14  1  0  0  0  0
 13 15  2  0  0  0  0
 13 16  2  0  0  0  0
 14 30  1  0  0  0  0
 14 31  1  0  0  0  0
 14 32  1  0  0  0  0
 17 18  1  0  0  0  0
 17 33  1  0  0  0  0
 17 34  1  0  0  0  0
 18 35  1  0  0  0  0
 18 36  1  0  0  0  0
M  END
$$$$
