ZINC000000028986      none
 OpenBabel11202420163D

 39 41  0  0  0  0  0  0  0  0999 V2000
   32.1878   34.9830   53.8396 O   0  0  0  0  0  0  0  0  0  0  0  0
   32.7775   34.4140   54.7379 C   0  0  0  0  0  0  0  0  0  0  0  0
   33.6290   33.2439   54.4380 C   0  0  0  0  0  0  0  0  0  0  0  0
   34.3122   32.5913   55.4665 C   0  0  0  0  0  0  0  0  0  0  0  0
   35.1013   31.4970   55.1800 C   0  0  0  0  0  0  0  0  0  0  0  0
   35.2249   31.0514   53.8759 C   0  0  0  0  0  0  0  0  0  0  0  0
   34.5549   31.6964   52.8510 C   0  0  0  0  0  0  0  0  0  0  0  0
   33.7586   32.7892   53.1238 C   0  0  0  0  0  0  0  0  0  0  0  0
   32.6431   34.8912   56.1260 C   0  0  0  0  0  0  0  0  0  0  0  0
   32.1214   34.0453   57.1110 C   0  0  0  0  0  0  0  0  0  0  0  0
   31.9926   34.4929   58.3951 C   0  0  0  0  0  0  0  0  0  0  0  0
   32.3803   35.7894   58.7246 C   0  0  0  0  0  0  0  0  0  0  0  0
   32.2474   36.2415   60.0320 N   0  0  0  0  0  0  0  0  0  0  0  0
   31.7753   35.1672   60.9150 C   0  0  0  0  0  0  0  0  0  0  0  0
   31.7799   35.6576   62.3646 C   0  0  0  0  0  0  0  0  0  0  0  0
   30.8684   36.8818   62.4871 C   0  0  0  0  0  0  0  0  0  0  0  0
   31.3529   37.9676   61.5223 C   0  0  0  0  0  0  0  0  0  0  0  0
   31.3607   37.4103   60.0970 C   0  0  0  0  0  0  0  0  0  0  0  0
   32.9004   36.6341   57.7469 C   0  0  0  0  0  0  0  0  0  0  0  0
   33.0316   36.1931   56.4606 C   0  0  0  0  0  0  0  0  0  0  0  0
   34.2201   32.9409   56.4842 H   0  0  0  0  0  0  0  0  0  0  0  0
   35.6276   30.9893   55.9749 H   0  0  0  0  0  0  0  0  0  0  0  0
   35.8473   30.1965   53.6566 H   0  0  0  0  0  0  0  0  0  0  0  0
   34.6561   31.3439   51.8354 H   0  0  0  0  0  0  0  0  0  0  0  0
   33.2369   33.2921   52.3231 H   0  0  0  0  0  0  0  0  0  0  0  0
   31.8203   33.0400   56.8561 H   0  0  0  0  0  0  0  0  0  0  0  0
   31.5897   33.8406   59.1558 H   0  0  0  0  0  0  0  0  0  0  0  0
   30.7622   34.8825   60.6311 H   0  0  0  0  0  0  0  0  0  0  0  0
   32.4345   34.3042   60.8214 H   0  0  0  0  0  0  0  0  0  0  0  0
   32.7952   35.9294   62.6537 H   0  0  0  0  0  0  0  0  0  0  0  0
   31.4147   34.8651   63.0180 H   0  0  0  0  0  0  0  0  0  0  0  0
   30.9024   37.2606   63.5086 H   0  0  0  0  0  0  0  0  0  0  0  0
   29.8457   36.6011   62.2356 H   0  0  0  0  0  0  0  0  0  0  0  0
   32.3614   38.2758   61.7981 H   0  0  0  0  0  0  0  0  0  0  0  0
   30.6827   38.8257   61.5738 H   0  0  0  0  0  0  0  0  0  0  0  0
   31.7188   38.1765   59.4094 H   0  0  0  0  0  0  0  0  0  0  0  0
   30.3496   37.1151   59.8170 H   0  0  0  0  0  0  0  0  0  0  0  0
   33.2000   37.6388   58.0059 H   0  0  0  0  0  0  0  0  0  0  0  0
   33.4350   36.8486   55.7030 H   0  0  0  0  0  0  0  0  0  0  0  0
  1  2  2  0  0  0  0
  2  3  1  0  0  0  0
  2  9  1  0  0  0  0
  3  8  2  0  0  0  0
  3  4  1  0  0  0  0
  4  5  2  0  0  0  0
  4 21  1  0  0  0  0
  5  6  1  0  0  0  0
  5 22  1  0  0  0  0
  6  7  2  0  0  0  0
  6 23  1  0  0  0  0
  7  8  1  0  0  0  0
  7 24  1  0  0  0  0
  8 25  1  0  0  0  0
  9 20  2  0  0  0  0
  9 10  1  0  0  0  0
 10 11  2  0  0  0  0
 10 26  1  0  0  0  0
 11 12  1  0  0  0  0
 11 27  1  0  0  0  0
 12 13  1  0  0  0  0
 12 19  2  0  0  0  0
 13 18  1  0  0  0  0
 13 14  1  0  0  0  0
 14 15  1  0  0  0  0
 14 28  1  0  0  0  0
 14 29  1  0  0  0  0
 15 16  1  0  0  0  0
 15 30  1  0  0  0  0
 15 31  1  0  0  0  0
 16 17  1  0  0  0  0
 16 32  1  0  0  0  0
 16 33  1  0  0  0  0
 17 18  1  0  0  0  0
 17 34  1  0  0  0  0
 17 35  1  0  0  0  0
 18 36  1  0  0  0  0
 18 37  1  0  0  0  0
 19 20  1  0  0  0  0
 19 38  1  0  0  0  0
 20 39  1  0  0  0  0
M  END
$$$$
