ZINC000000050977      none
 OpenBabel11202420153D

 36 37  0  0  0  0  0  0  0  0999 V2000
   34.7718   32.7530   55.5238 C   0  0  0  0  0  0  0  0  0  0  0  0
   34.5817   34.1070   56.0121 O   0  0  0  0  0  0  0  0  0  0  0  0
   33.7936   34.9176   55.2777 C   0  0  0  0  0  0  0  0  0  0  0  0
   33.2795   34.5035   54.2569 O   0  0  0  0  0  0  0  0  0  0  0  0
   33.5560   36.3015   55.7111 C   0  0  0  0  0  0  0  0  0  0  0  0
   33.8559   37.4427   55.0202 C   0  0  0  0  0  0  0  0  0  0  0  0
   34.4995   37.5021   53.6589 C   0  0  0  0  0  0  0  0  0  0  0  0
   33.4869   38.5047   55.7610 N   0  0  0  0  0  0  0  0  0  0  0  0
   33.5972   39.4304   55.4931 H   0  0  0  0  0  0  0  0  0  0  0  0
   32.9363   38.0978   56.9397 C   0  0  0  0  0  0  0  0  0  0  0  0
   32.4078   39.0042   58.0214 C   0  0  0  0  0  0  0  0  0  0  0  0
   32.9421   36.7412   56.9771 C   0  0  0  0  0  0  0  0  0  0  0  0
   32.4390   35.8769   58.0721 C   0  0  0  0  0  0  0  0  0  0  0  0
   32.4643   36.3325   59.3893 C   0  0  0  0  0  0  0  0  0  0  0  0
   32.0005   35.5241   60.4061 C   0  0  0  0  0  0  0  0  0  0  0  0
   31.4990   34.2623   60.1176 C   0  0  0  0  0  0  0  0  0  0  0  0
   31.0381   33.4701   61.1212 O   0  0  0  0  0  0  0  0  0  0  0  0
   31.0998   34.0002   62.4467 C   0  0  0  0  0  0  0  0  0  0  0  0
   31.4683   33.8074   58.8066 C   0  0  0  0  0  0  0  0  0  0  0  0
   31.9353   34.6089   57.7858 C   0  0  0  0  0  0  0  0  0  0  0  0
   33.8071   32.2490   55.4653 H   0  0  0  0  0  0  0  0  0  0  0  0
   35.2261   32.7843   54.5335 H   0  0  0  0  0  0  0  0  0  0  0  0
   35.4251   32.2091   56.2061 H   0  0  0  0  0  0  0  0  0  0  0  0
   35.5833   37.5327   53.7704 H   0  0  0  0  0  0  0  0  0  0  0  0
   34.2181   36.6191   53.0851 H   0  0  0  0  0  0  0  0  0  0  0  0
   34.1625   38.3974   53.1364 H   0  0  0  0  0  0  0  0  0  0  0  0
   33.2090   39.2389   58.7224 H   0  0  0  0  0  0  0  0  0  0  0  0
   32.0353   39.9256   57.5737 H   0  0  0  0  0  0  0  0  0  0  0  0
   31.5970   38.5037   58.5508 H   0  0  0  0  0  0  0  0  0  0  0  0
   32.8503   37.3159   59.6140 H   0  0  0  0  0  0  0  0  0  0  0  0
   32.0231   35.8750   61.4273 H   0  0  0  0  0  0  0  0  0  0  0  0
   30.7014   33.2684   63.1495 H   0  0  0  0  0  0  0  0  0  0  0  0
   32.1361   34.2219   62.7016 H   0  0  0  0  0  0  0  0  0  0  0  0
   30.5088   34.9144   62.5003 H   0  0  0  0  0  0  0  0  0  0  0  0
   31.0777   32.8251   58.5853 H   0  0  0  0  0  0  0  0  0  0  0  0
   31.9114   34.2543   56.7660 H   0  0  0  0  0  0  0  0  0  0  0  0
  1  2  1  0  0  0  0
  1 21  1  0  0  0  0
  1 22  1  0  0  0  0
  1 23  1  0  0  0  0
  2  3  1  0  0  0  0
  3  4  2  0  0  0  0
  3  5  1  0  0  0  0
  5 12  1  0  0  0  0
  5  6  2  0  0  0  0
  6  7  1  0  0  0  0
  6  8  1  0  0  0  0
  7 24  1  0  0  0  0
  7 25  1  0  0  0  0
  7 26  1  0  0  0  0
  8  9  1  0  0  0  0
  8 10  1  0  0  0  0
 10 11  1  0  0  0  0
 10 12  2  0  0  0  0
 11 27  1  0  0  0  0
 11 28  1  0  0  0  0
 11 29  1  0  0  0  0
 12 13  1  0  0  0  0
 13 20  2  0  0  0  0
 13 14  1  0  0  0  0
 14 15  2  0  0  0  0
 14 30  1  0  0  0  0
 15 16  1  0  0  0  0
 15 31  1  0  0  0  0
 16 17  1  0  0  0  0
 16 19  2  0  0  0  0
 17 18  1  0  0  0  0
 18 32  1  0  0  0  0
 18 33  1  0  0  0  0
 18 34  1  0  0  0  0
 19 20  1  0  0  0  0
 19 35  1  0  0  0  0
 20 36  1  0  0  0  0
M  END
$$$$
