ZINC000000043503      none
 OpenBabel11202420153D

 32 34  0  0  0  0  0  0  0  0999 V2000
   31.9588   38.8524   60.0143 O   0  0  0  0  0  0  0  0  0  0  0  0
   32.3076   37.6891   59.9487 C   0  0  0  0  0  0  0  0  0  0  0  0
   32.3919   36.9466   61.0703 N   0  0  0  0  0  0  0  0  0  0  0  0
   32.0782   37.5140   62.3100 C   0  0  0  0  0  0  0  0  0  0  0  0
   32.7013   37.0542   63.4631 C   0  0  0  0  0  0  0  0  0  0  0  0
   32.3935   37.6197   64.6848 C   0  0  0  0  0  0  0  0  0  0  0  0
   31.4576   38.6359   64.7623 C   0  0  0  0  0  0  0  0  0  0  0  0
   31.0328   39.4020   66.4382 Br  0  0  0  0  0  0  0  0  0  0  0  0
   30.8317   39.0924   63.6158 C   0  0  0  0  0  0  0  0  0  0  0  0
   31.1394   38.5341   62.3907 C   0  0  0  0  0  0  0  0  0  0  0  0
   32.6379   37.0917   58.6433 C   0  0  0  0  0  0  0  0  0  0  0  0
   32.4312   35.7205   58.4177 C   0  0  0  0  0  0  0  0  0  0  0  0
   32.7159   35.1640   57.2687 N   0  0  0  0  0  0  0  0  0  0  0  0
   33.2192   35.8678   56.2453 C   0  0  0  0  0  0  0  0  0  0  0  0
   33.5164   35.2448   55.0221 C   0  0  0  0  0  0  0  0  0  0  0  0
   34.0326   35.9777   53.9965 C   0  0  0  0  0  0  0  0  0  0  0  0
   34.2623   37.3439   54.1349 C   0  0  0  0  0  0  0  0  0  0  0  0
   33.9865   37.9821   55.3070 C   0  0  0  0  0  0  0  0  0  0  0  0
   33.4594   37.2557   56.3850 C   0  0  0  0  0  0  0  0  0  0  0  0
   33.1613   37.8843   57.6152 C   0  0  0  0  0  0  0  0  0  0  0  0
   33.3751   39.2078   57.7934 O   0  0  0  0  0  0  0  0  0  0  0  0
   32.6701   36.0188   61.0180 H   0  0  0  0  0  0  0  0  0  0  0  0
   33.4281   36.2577   63.4039 H   0  0  0  0  0  0  0  0  0  0  0  0
   32.8806   37.2654   65.5813 H   0  0  0  0  0  0  0  0  0  0  0  0
   30.1017   39.8858   63.6791 H   0  0  0  0  0  0  0  0  0  0  0  0
   30.6500   38.8902   61.4962 H   0  0  0  0  0  0  0  0  0  0  0  0
   32.0275   35.1110   59.2126 H   0  0  0  0  0  0  0  0  0  0  0  0
   33.3403   34.1866   54.8966 H   0  0  0  0  0  0  0  0  0  0  0  0
   34.2633   35.4921   53.0599 H   0  0  0  0  0  0  0  0  0  0  0  0
   34.6681   37.9036   53.3052 H   0  0  0  0  0  0  0  0  0  0  0  0
   34.1730   39.0413   55.4054 H   0  0  0  0  0  0  0  0  0  0  0  0
   33.1358   39.5300   58.6732 H   0  0  0  0  0  0  0  0  0  0  0  0
  1  2  2  0  0  0  0
  2  3  1  0  0  0  0
  2 11  1  0  0  0  0
  3  4  1  0  0  0  0
  3 22  1  0  0  0  0
  4 10  2  0  0  0  0
  4  5  1  0  0  0  0
  5  6  2  0  0  0  0
  5 23  1  0  0  0  0
  6  7  1  0  0  0  0
  6 24  1  0  0  0  0
  7  8  1  0  0  0  0
  7  9  2  0  0  0  0
  9 10  1  0  0  0  0
  9 25  1  0  0  0  0
 10 26  1  0  0  0  0
 11 20  2  0  0  0  0
 11 12  1  0  0  0  0
 12 13  2  0  0  0  0
 12 27  1  0  0  0  0
 13 14  1  0  0  0  0
 14 19  2  0  0  0  0
 14 15  1  0  0  0  0
 15 16  2  0  0  0  0
 15 28  1  0  0  0  0
 16 17  1  0  0  0  0
 16 29  1  0  0  0  0
 17 18  2  0  0  0  0
 17 30  1  0  0  0  0
 18 19  1  0  0  0  0
 18 31  1  0  0  0  0
 19 20  1  0  0  0  0
 20 21  1  0  0  0  0
 21 32  1  0  0  0  0
M  END
$$$$
