ZINC000000027361      none
 OpenBabel11202420153D

 25 26  0  0  0  0  0  0  0  0999 V2000
   29.4573   35.0524   65.3192 C   0  0  0  0  0  0  0  0  0  0  0  0
   30.3631   35.6841   64.3565 N   0  0  0  0  0  0  0  0  0  0  0  0
   32.0308   35.4094   64.1927 S   0  0  0  0  0  0  0  0  0  0  0  0
   32.2433   36.5175   62.8926 C   0  0  0  0  0  0  0  0  0  0  0  0
   33.2788   36.7739   62.3064 O   0  0  0  0  0  0  0  0  0  0  0  0
   31.0265   37.0362   62.6560 N   0  0  0  0  0  0  0  0  0  0  0  0
   30.8010   38.0323   61.6056 C   0  0  0  0  0  0  0  0  0  0  0  0
   31.5132   37.6061   60.3477 C   0  0  0  0  0  0  0  0  0  0  0  0
   32.2472   38.5266   59.6234 C   0  0  0  0  0  0  0  0  0  0  0  0
   32.9045   38.1345   58.4722 C   0  0  0  0  0  0  0  0  0  0  0  0
   32.8191   36.8244   58.0397 C   0  0  0  0  0  0  0  0  0  0  0  0
   32.0807   35.9050   58.7613 C   0  0  0  0  0  0  0  0  0  0  0  0
   31.4277   36.2959   59.9153 C   0  0  0  0  0  0  0  0  0  0  0  0
   30.0423   36.5965   63.4260 C   0  0  0  0  0  0  0  0  0  0  0  0
   28.9019   37.0009   63.2963 O   0  0  0  0  0  0  0  0  0  0  0  0
   29.0425   34.1427   64.8851 H   0  0  0  0  0  0  0  0  0  0  0  0
   30.0075   34.8038   66.2267 H   0  0  0  0  0  0  0  0  0  0  0  0
   28.6479   35.7408   65.5621 H   0  0  0  0  0  0  0  0  0  0  0  0
   29.7325   38.1159   61.4076 H   0  0  0  0  0  0  0  0  0  0  0  0
   31.1866   38.9982   61.9320 H   0  0  0  0  0  0  0  0  0  0  0  0
   32.3104   39.5513   59.9589 H   0  0  0  0  0  0  0  0  0  0  0  0
   33.4811   38.8528   57.9083 H   0  0  0  0  0  0  0  0  0  0  0  0
   33.3290   36.5190   57.1380 H   0  0  0  0  0  0  0  0  0  0  0  0
   32.0137   34.8815   58.4232 H   0  0  0  0  0  0  0  0  0  0  0  0
   30.8506   35.5778   60.4789 H   0  0  0  0  0  0  0  0  0  0  0  0
  1  2  1  0  0  0  0
  1 16  1  0  0  0  0
  1 17  1  0  0  0  0
  1 18  1  0  0  0  0
  2 14  1  0  0  0  0
  2  3  1  0  0  0  0
  3  4  1  0  0  0  0
  4  5  2  0  0  0  0
  4  6  1  0  0  0  0
  6  7  1  0  0  0  0
  6 14  1  0  0  0  0
  7  8  1  0  0  0  0
  7 19  1  0  0  0  0
  7 20  1  0  0  0  0
  8 13  2  0  0  0  0
  8  9  1  0  0  0  0
  9 10  2  0  0  0  0
  9 21  1  0  0  0  0
 10 11  1  0  0  0  0
 10 22  1  0  0  0  0
 11 12  2  0  0  0  0
 11 23  1  0  0  0  0
 12 13  1  0  0  0  0
 12 24  1  0  0  0  0
 13 25  1  0  0  0  0
 14 15  2  0  0  0  0
M  END
$$$$
