ZINC000000005515      none
 OpenBabel11202420153D

 43 46  0  0  1  0  0  0  0  0999 V2000
   34.6061   33.5440   72.8802 C   0  0  0  0  0  0  0  0  0  0  0  0
   33.7393   34.5392   72.2351 N   0  3  1  0  0  0  0  0  0  0  0  0
   33.5272   35.2548   72.9141 H   0  0  0  0  0  0  0  0  0  0  0  0
   34.4802   35.1504   71.1463 C   0  0  0  0  0  0  0  0  0  0  0  0
   33.7585   36.3949   70.6199 C   0  0  0  0  0  0  0  0  0  0  0  0
   32.7379   35.9507   69.5916 C   0  0  0  0  0  0  0  0  0  0  0  0
   32.9285   36.2593   68.2568 C   0  0  0  0  0  0  0  0  0  0  0  0
   31.9948   35.8535   67.3205 C   0  0  0  0  0  0  0  0  0  0  0  0
   32.2255   36.2352   65.6428 Cl  0  0  0  0  0  0  0  0  0  0  0  0
   30.8730   35.1404   67.7223 C   0  0  0  0  0  0  0  0  0  0  0  0
   29.9547   34.7424   66.8026 O   0  5  0  0  0  0  0  0  0  0  0  0
   30.6899   34.8351   69.0636 C   0  0  0  0  0  0  0  0  0  0  0  0
   31.6294   35.2449   69.9905 C   0  0  0  0  0  0  0  0  0  0  0  0
   31.4353   34.9141   71.4567 C   0  0  2  0  0  0  0  0  0  0  0  0
   30.4406   34.4956   71.6107 H   0  0  0  0  0  0  0  0  0  0  0  0
   31.5953   36.1627   72.2852 C   0  0  0  0  0  0  0  0  0  0  0  0
   31.2629   37.3928   71.7502 C   0  0  0  0  0  0  0  0  0  0  0  0
   31.4068   38.5441   72.5018 C   0  0  0  0  0  0  0  0  0  0  0  0
   31.8901   38.4637   73.7962 C   0  0  0  0  0  0  0  0  0  0  0  0
   32.2256   37.2396   74.3304 C   0  0  0  0  0  0  0  0  0  0  0  0
   32.0789   36.0737   73.5880 C   0  0  0  0  0  0  0  0  0  0  0  0
   32.4555   34.9803   74.3064 O   0  0  0  0  0  0  0  0  0  0  0  0
   33.2751   35.3975   75.4113 C   0  0  0  0  0  0  0  0  0  0  0  0
   32.7760   36.8361   75.6846 C   0  0  0  0  0  0  0  0  0  0  0  0
   32.4975   33.8866   71.8599 C   0  0  0  0  0  0  0  0  0  0  0  0
   35.4995   34.0356   73.2653 H   0  0  0  0  0  0  0  0  0  0  0  0
   34.0681   33.0721   73.7023 H   0  0  0  0  0  0  0  0  0  0  0  0
   34.8939   32.7861   72.1517 H   0  0  0  0  0  0  0  0  0  0  0  0
   34.5863   34.4289   70.3362 H   0  0  0  0  0  0  0  0  0  0  0  0
   35.4703   35.4349   71.5026 H   0  0  0  0  0  0  0  0  0  0  0  0
   34.4786   37.0690   70.1561 H   0  0  0  0  0  0  0  0  0  0  0  0
   33.2548   36.9030   71.4422 H   0  0  0  0  0  0  0  0  0  0  0  0
   33.8020   36.8139   67.9472 H   0  0  0  0  0  0  0  0  0  0  0  0
   29.8189   34.2810   69.3809 H   0  0  0  0  0  0  0  0  0  0  0  0
   30.8888   37.4548   70.7389 H   0  0  0  0  0  0  0  0  0  0  0  0
   31.1431   39.5029   72.0805 H   0  0  0  0  0  0  0  0  0  0  0  0
   32.0037   39.3605   74.3871 H   0  0  0  0  0  0  0  0  0  0  0  0
   34.3285   35.4010   75.1310 H   0  0  0  0  0  0  0  0  0  0  0  0
   33.1105   34.7602   76.2802 H   0  0  0  0  0  0  0  0  0  0  0  0
   31.9910   36.8391   76.4408 H   0  0  0  0  0  0  0  0  0  0  0  0
   33.6005   37.4852   75.9791 H   0  0  0  0  0  0  0  0  0  0  0  0
   32.1296   33.3045   72.7048 H   0  0  0  0  0  0  0  0  0  0  0  0
   32.6849   33.2174   71.0201 H   0  0  0  0  0  0  0  0  0  0  0  0
  1  2  1  0  0  0  0
  1 26  1  0  0  0  0
  1 27  1  0  0  0  0
  1 28  1  0  0  0  0
  2  3  1  1  0  0  0
  2 25  1  0  0  0  0
  2  4  1  0  0  0  0
  4  5  1  0  0  0  0
  4 29  1  0  0  0  0
  4 30  1  0  0  0  0
  5  6  1  0  0  0  0
  5 31  1  0  0  0  0
  5 32  1  0  0  0  0
  6 13  2  0  0  0  0
  6  7  1  0  0  0  0
  7  8  2  0  0  0  0
  7 33  1  0  0  0  0
  8  9  1  0  0  0  0
  8 10  1  0  0  0  0
 10 11  1  0  0  0  0
 10 12  2  0  0  0  0
 12 13  1  0  0  0  0
 12 34  1  0  0  0  0
 13 14  1  0  0  0  0
 14 15  1  1  0  0  0
 14 16  1  0  0  0  0
 14 25  1  0  0  0  0
 16 21  2  0  0  0  0
 16 17  1  0  0  0  0
 17 18  2  0  0  0  0
 17 35  1  0  0  0  0
 18 19  1  0  0  0  0
 18 36  1  0  0  0  0
 19 20  2  0  0  0  0
 19 37  1  0  0  0  0
 20 24  1  0  0  0  0
 20 21  1  0  0  0  0
 21 22  1  0  0  0  0
 22 23  1  0  0  0  0
 23 24  1  0  0  0  0
 23 38  1  0  0  0  0
 23 39  1  0  0  0  0
 24 40  1  0  0  0  0
 24 41  1  0  0  0  0
 25 42  1  0  0  0  0
 25 43  1  0  0  0  0
M  CHG  2   2   1  11  -1
M  END
$$$$
