ZINC000000027450      none
 OpenBabel11202420153D

 21 23  0  0  0  0  0  0  0  0999 V2000
   32.3528   38.4395   60.7261 O   0  0  0  0  0  0  0  0  0  0  0  0
   32.6936   38.4275   59.5554 C   0  0  0  0  0  0  0  0  0  0  0  0
   33.1056   39.6264   58.9391 C   0  0  0  0  0  0  0  0  0  0  0  0
   33.4867   39.6293   57.6370 C   0  0  0  0  0  0  0  0  0  0  0  0
   33.4647   38.4116   56.9091 C   0  0  0  0  0  0  0  0  0  0  0  0
   33.8535   38.3769   55.5575 C   0  0  0  0  0  0  0  0  0  0  0  0
   33.8288   37.2061   54.8730 C   0  0  0  0  0  0  0  0  0  0  0  0
   33.4181   36.0119   55.4917 C   0  0  0  0  0  0  0  0  0  0  0  0
   33.2952   34.3808   54.8416 S   0  0  0  0  0  0  0  0  0  0  0  0
   32.7243   33.7417   56.3707 C   0  0  0  0  0  0  0  0  0  0  0  0
   32.6385   34.6886   57.2844 C   0  0  0  0  0  0  0  0  0  0  0  0
   33.0201   36.0144   56.8288 C   0  0  0  0  0  0  0  0  0  0  0  0
   33.0514   37.2366   57.5474 C   0  0  0  0  0  0  0  0  0  0  0  0
   32.6708   37.2691   58.8690 N   0  0  0  0  0  0  0  0  0  0  0  0
   32.3845   36.4534   59.3088 H   0  0  0  0  0  0  0  0  0  0  0  0
   33.1174   40.5460   59.5053 H   0  0  0  0  0  0  0  0  0  0  0  0
   33.8030   40.5459   57.1613 H   0  0  0  0  0  0  0  0  0  0  0  0
   34.1726   39.2832   55.0644 H   0  0  0  0  0  0  0  0  0  0  0  0
   34.1297   37.1908   53.8359 H   0  0  0  0  0  0  0  0  0  0  0  0
   32.4751   32.7051   56.5426 H   0  0  0  0  0  0  0  0  0  0  0  0
   32.3055   34.4942   58.2932 H   0  0  0  0  0  0  0  0  0  0  0  0
  1  2  2  0  0  0  0
  2 14  1  0  0  0  0
  2  3  1  0  0  0  0
  3  4  2  0  0  0  0
  3 16  1  0  0  0  0
  4  5  1  0  0  0  0
  4 17  1  0  0  0  0
  5 13  2  0  0  0  0
  5  6  1  0  0  0  0
  6  7  2  0  0  0  0
  6 18  1  0  0  0  0
  7  8  1  0  0  0  0
  7 19  1  0  0  0  0
  8 12  2  0  0  0  0
  8  9  1  0  0  0  0
  9 10  1  0  0  0  0
 10 11  2  0  0  0  0
 10 20  1  0  0  0  0
 11 12  1  0  0  0  0
 11 21  1  0  0  0  0
 12 13  1  0  0  0  0
 13 14  1  0  0  0  0
 14 15  1  0  0  0  0
M  END
$$$$
