ZINC000000040744      none
 OpenBabel11202420153D

 33 34  0  0  0  0  0  0  0  0999 V2000
   33.1131   35.3091   56.4175 C   0  0  0  0  0  0  0  0  0  0  0  0
   33.3334   36.6170   56.9494 O   0  0  0  0  0  0  0  0  0  0  0  0
   32.7480   36.9049   58.1426 C   0  0  0  0  0  0  0  0  0  0  0  0
   31.9791   35.9493   58.7873 C   0  0  0  0  0  0  0  0  0  0  0  0
   31.3850   36.2433   60.0005 C   0  0  0  0  0  0  0  0  0  0  0  0
   31.5558   37.4901   60.5730 C   0  0  0  0  0  0  0  0  0  0  0  0
   30.9056   37.8056   61.8954 C   0  0  0  0  0  0  0  0  0  0  0  0
   31.8441   37.4401   63.0164 C   0  0  0  0  0  0  0  0  0  0  0  0
   33.0286   36.9387   62.8737 N   0  0  0  0  0  0  0  0  0  0  0  0
   33.5761   36.7425   64.1491 N   0  0  0  0  0  0  0  0  0  0  0  0
   34.4529   36.3791   64.3487 H   0  0  0  0  0  0  0  0  0  0  0  0
   32.6566   37.1526   65.0476 C   0  0  0  0  0  0  0  0  0  0  0  0
   32.8231   37.1282   66.7513 S   0  0  0  0  0  0  0  0  0  0  0  0
   31.5849   37.5900   64.3566 N   0  0  0  0  0  0  0  0  0  0  0  0
   30.3527   38.1304   64.9364 C   0  0  0  0  0  0  0  0  0  0  0  0
   32.3268   38.4459   59.9381 C   0  0  0  0  0  0  0  0  0  0  0  0
   32.9203   38.1596   58.7191 C   0  0  0  0  0  0  0  0  0  0  0  0
   33.6740   39.1008   58.0904 O   0  0  0  0  0  0  0  0  0  0  0  0
   33.8071   40.3662   58.7408 C   0  0  0  0  0  0  0  0  0  0  0  0
   32.0451   35.1540   56.2647 H   0  0  0  0  0  0  0  0  0  0  0  0
   33.6343   35.2117   55.4652 H   0  0  0  0  0  0  0  0  0  0  0  0
   33.4920   34.5640   57.1169 H   0  0  0  0  0  0  0  0  0  0  0  0
   31.8434   34.9748   58.3417 H   0  0  0  0  0  0  0  0  0  0  0  0
   30.7859   35.4977   60.5018 H   0  0  0  0  0  0  0  0  0  0  0  0
   30.6789   38.8706   61.9440 H   0  0  0  0  0  0  0  0  0  0  0  0
   29.9832   37.2329   61.9925 H   0  0  0  0  0  0  0  0  0  0  0  0
   29.6458   37.3188   65.1085 H   0  0  0  0  0  0  0  0  0  0  0  0
   30.5811   38.6201   65.8831 H   0  0  0  0  0  0  0  0  0  0  0  0
   29.9148   38.8542   64.2492 H   0  0  0  0  0  0  0  0  0  0  0  0
   32.4630   39.4174   60.3901 H   0  0  0  0  0  0  0  0  0  0  0  0
   34.4314   41.0225   58.1346 H   0  0  0  0  0  0  0  0  0  0  0  0
   34.2693   40.2256   59.7179 H   0  0  0  0  0  0  0  0  0  0  0  0
   32.8220   40.8157   58.8662 H   0  0  0  0  0  0  0  0  0  0  0  0
  1  2  1  0  0  0  0
  1 20  1  0  0  0  0
  1 21  1  0  0  0  0
  1 22  1  0  0  0  0
  2  3  1  0  0  0  0
  3 17  2  0  0  0  0
  3  4  1  0  0  0  0
  4  5  2  0  0  0  0
  4 23  1  0  0  0  0
  5  6  1  0  0  0  0
  5 24  1  0  0  0  0
  6  7  1  0  0  0  0
  6 16  2  0  0  0  0
  7  8  1  0  0  0  0
  7 25  1  0  0  0  0
  7 26  1  0  0  0  0
  8 14  1  0  0  0  0
  8  9  2  0  0  0  0
  9 10  1  0  0  0  0
 10 11  1  0  0  0  0
 10 12  1  0  0  0  0
 12 13  2  0  0  0  0
 12 14  1  0  0  0  0
 14 15  1  0  0  0  0
 15 27  1  0  0  0  0
 15 28  1  0  0  0  0
 15 29  1  0  0  0  0
 16 17  1  0  0  0  0
 16 30  1  0  0  0  0
 17 18  1  0  0  0  0
 18 19  1  0  0  0  0
 19 31  1  0  0  0  0
 19 32  1  0  0  0  0
 19 33  1  0  0  0  0
M  END
$$$$
