ZINC000000052743      none
 OpenBabel11202420153D

 34 36  0  0  0  0  0  0  0  0999 V2000
   29.1664   37.1819   64.3473 O   0  0  0  0  0  0  0  0  0  0  0  0
   30.3302   36.8945   64.1425 C   0  0  0  0  0  0  0  0  0  0  0  0
   30.7992   36.6578   62.7669 C   0  0  0  0  0  0  0  0  0  0  0  0
   31.2847   37.7018   61.9985 C   0  0  0  0  0  0  0  0  0  0  0  0
   31.7297   37.4278   60.6804 C   0  0  0  0  0  0  0  0  0  0  0  0
   32.2320   38.4617   59.8756 C   0  0  0  0  0  0  0  0  0  0  0  0
   32.6536   38.1913   58.6059 C   0  0  0  0  0  0  0  0  0  0  0  0
   32.5898   36.8990   58.1032 C   0  0  0  0  0  0  0  0  0  0  0  0
   32.0995   35.8680   58.8760 C   0  0  0  0  0  0  0  0  0  0  0  0
   31.6636   36.1179   60.1729 C   0  0  0  0  0  0  0  0  0  0  0  0
   31.1839   35.1063   60.9276 O   0  0  0  0  0  0  0  0  0  0  0  0
   30.7545   35.3120   62.1838 C   0  0  0  0  0  0  0  0  0  0  0  0
   30.3274   34.3804   62.8395 O   0  0  0  0  0  0  0  0  0  0  0  0
   31.1908   36.7927   65.1749 N   0  0  0  0  0  0  0  0  0  0  0  0
   32.5999   36.4469   64.9433 C   0  0  0  0  0  0  0  0  0  0  0  0
   33.4835   37.5088   65.6058 C   0  0  0  0  0  0  0  0  0  0  0  0
   33.1017   37.6355   67.0824 C   0  0  0  0  0  0  0  0  0  0  0  0
   31.6422   38.0813   67.1973 C   0  0  0  0  0  0  0  0  0  0  0  0
   30.7378   37.0259   66.5529 C   0  0  0  0  0  0  0  0  0  0  0  0
   31.3271   38.7049   62.3965 H   0  0  0  0  0  0  0  0  0  0  0  0
   32.2846   39.4696   60.2600 H   0  0  0  0  0  0  0  0  0  0  0  0
   33.0400   38.9884   57.9882 H   0  0  0  0  0  0  0  0  0  0  0  0
   32.9273   36.6992   57.0969 H   0  0  0  0  0  0  0  0  0  0  0  0
   32.0544   34.8664   58.4747 H   0  0  0  0  0  0  0  0  0  0  0  0
   32.7990   36.4226   63.8721 H   0  0  0  0  0  0  0  0  0  0  0  0
   32.8130   35.4708   65.3791 H   0  0  0  0  0  0  0  0  0  0  0  0
   34.5296   37.2139   65.5246 H   0  0  0  0  0  0  0  0  0  0  0  0
   33.3355   38.4672   65.1083 H   0  0  0  0  0  0  0  0  0  0  0  0
   33.2264   36.6706   67.5737 H   0  0  0  0  0  0  0  0  0  0  0  0
   33.7454   38.3729   67.5620 H   0  0  0  0  0  0  0  0  0  0  0  0
   31.3778   38.1939   68.2487 H   0  0  0  0  0  0  0  0  0  0  0  0
   31.5115   39.0344   66.6848 H   0  0  0  0  0  0  0  0  0  0  0  0
   30.7991   36.0970   67.1199 H   0  0  0  0  0  0  0  0  0  0  0  0
   29.7082   37.3836   66.5434 H   0  0  0  0  0  0  0  0  0  0  0  0
  1  2  2  0  0  0  0
  2  3  1  0  0  0  0
  2 14  1  0  0  0  0
  3 12  1  0  0  0  0
  3  4  2  0  0  0  0
  4  5  1  0  0  0  0
  4 20  1  0  0  0  0
  5 10  2  0  0  0  0
  5  6  1  0  0  0  0
  6  7  2  0  0  0  0
  6 21  1  0  0  0  0
  7  8  1  0  0  0  0
  7 22  1  0  0  0  0
  8  9  2  0  0  0  0
  8 23  1  0  0  0  0
  9 10  1  0  0  0  0
  9 24  1  0  0  0  0
 10 11  1  0  0  0  0
 11 12  1  0  0  0  0
 12 13  2  0  0  0  0
 14 19  1  0  0  0  0
 14 15  1  0  0  0  0
 15 16  1  0  0  0  0
 15 25  1  0  0  0  0
 15 26  1  0  0  0  0
 16 17  1  0  0  0  0
 16 27  1  0  0  0  0
 16 28  1  0  0  0  0
 17 18  1  0  0  0  0
 17 29  1  0  0  0  0
 17 30  1  0  0  0  0
 18 19  1  0  0  0  0
 18 31  1  0  0  0  0
 18 32  1  0  0  0  0
 19 33  1  0  0  0  0
 19 34  1  0  0  0  0
M  END
$$$$
