ZINC000000007996      none
 OpenBabel11202420153D

 23 23  0  0  1  0  0  0  0  0999 V2000
   32.8817   37.8368   64.9805 O   0  0  0  0  0  0  0  0  0  0  0  0
   32.8618   36.6727   65.3199 C   0  0  0  0  0  0  0  0  0  0  0  0
   32.4618   35.7238   64.4503 N   0  0  0  0  0  0  0  0  0  0  0  0
   32.0510   36.0988   63.0950 C   0  0  2  0  0  0  0  0  0  0  0  0
   32.5916   36.9910   62.7790 H   0  0  0  0  0  0  0  0  0  0  0  0
   30.5456   36.3743   63.0717 C   0  0  0  0  0  0  0  0  0  0  0  0
   30.1875   37.3074   61.9293 C   0  0  0  0  0  0  0  0  0  0  0  0
   30.3964   36.7028   60.5508 C   0  0  0  0  0  0  0  0  0  0  0  0
   31.8838   36.4660   60.2823 C   0  0  0  0  0  0  0  0  0  0  0  0
   32.2599   35.1499   60.8234 N   0  0  0  0  0  0  0  0  0  0  0  0
   32.3458   34.9607   62.1408 C   0  0  0  0  0  0  0  0  0  0  0  0
   32.6616   33.8735   62.5759 O   0  0  0  0  0  0  0  0  0  0  0  0
   33.1648   36.3963   66.3191 H   0  0  0  0  0  0  0  0  0  0  0  0
   32.4459   34.7928   64.7218 H   0  0  0  0  0  0  0  0  0  0  0  0
   30.0103   35.4329   62.9473 H   0  0  0  0  0  0  0  0  0  0  0  0
   30.2500   36.8332   64.0152 H   0  0  0  0  0  0  0  0  0  0  0  0
   29.1400   37.5923   62.0280 H   0  0  0  0  0  0  0  0  0  0  0  0
   30.7984   38.2065   62.0098 H   0  0  0  0  0  0  0  0  0  0  0  0
   29.9987   37.3789   59.7940 H   0  0  0  0  0  0  0  0  0  0  0  0
   29.8663   35.7520   60.4949 H   0  0  0  0  0  0  0  0  0  0  0  0
   32.4718   37.2436   60.7699 H   0  0  0  0  0  0  0  0  0  0  0  0
   32.0693   36.4866   59.2084 H   0  0  0  0  0  0  0  0  0  0  0  0
   32.4461   34.4153   60.2179 H   0  0  0  0  0  0  0  0  0  0  0  0
  1  2  2  0  0  0  0
  2  3  1  0  0  0  0
  2 13  1  0  0  0  0
  3  4  1  0  0  0  0
  3 14  1  0  0  0  0
  4  5  1  6  0  0  0
  4 11  1  0  0  0  0
  4  6  1  0  0  0  0
  6  7  1  0  0  0  0
  6 15  1  0  0  0  0
  6 16  1  0  0  0  0
  7  8  1  0  0  0  0
  7 17  1  0  0  0  0
  7 18  1  0  0  0  0
  8  9  1  0  0  0  0
  8 19  1  0  0  0  0
  8 20  1  0  0  0  0
  9 10  1  0  0  0  0
  9 21  1  0  0  0  0
  9 22  1  0  0  0  0
 10 11  1  0  0  0  0
 10 23  1  0  0  0  0
 11 12  2  0  0  0  0
M  END
$$$$
