ZINC000000004828      none
 OpenBabel11202420153D

 37 38  0  0  0  0  0  0  0  0999 V2000
   33.6814   35.8995   55.0878 C   0  0  0  0  0  0  0  0  0  0  0  0
   32.9734   35.1923   56.1080 O   0  0  0  0  0  0  0  0  0  0  0  0
   32.6917   35.8736   57.2486 C   0  0  0  0  0  0  0  0  0  0  0  0
   33.0948   37.1958   57.3827 C   0  0  0  0  0  0  0  0  0  0  0  0
   32.8121   37.8921   58.5370 C   0  0  0  0  0  0  0  0  0  0  0  0
   32.1167   37.2666   59.5785 C   0  0  0  0  0  0  0  0  0  0  0  0
   31.8141   38.0068   60.8114 C   0  0  0  0  0  0  0  0  0  0  0  0
   31.5217   37.3364   61.9472 C   0  0  0  0  0  0  0  0  0  0  0  0
   31.2296   38.0506   63.1372 C   0  0  0  0  0  0  0  0  0  0  0  0
   30.2884   38.8211   63.1688 O   0  0  0  0  0  0  0  0  0  0  0  0
   31.9947   37.8760   64.2329 N   0  0  0  0  0  0  0  0  0  0  0  0
   31.7759   38.5594   65.5131 C   0  0  0  0  0  0  0  0  0  0  0  0
   33.0978   38.4002   66.2965 C   0  0  0  0  0  0  0  0  0  0  0  0
   33.6832   37.1139   65.6689 C   0  0  0  0  0  0  0  0  0  0  0  0
   33.0527   37.0492   64.2953 C   0  0  0  0  0  0  0  0  0  0  0  0
   33.4460   36.3549   63.3825 O   0  0  0  0  0  0  0  0  0  0  0  0
   31.7108   35.9339   59.4423 C   0  0  0  0  0  0  0  0  0  0  0  0
   32.0031   35.2419   58.2837 C   0  0  0  0  0  0  0  0  0  0  0  0
   31.6153   33.9453   58.1501 O   0  0  0  0  0  0  0  0  0  0  0  0
   30.9139   33.3614   59.2498 C   0  0  0  0  0  0  0  0  0  0  0  0
   33.0986   36.7660   54.7752 H   0  0  0  0  0  0  0  0  0  0  0  0
   34.6444   36.2305   55.4767 H   0  0  0  0  0  0  0  0  0  0  0  0
   33.8412   35.2416   54.2337 H   0  0  0  0  0  0  0  0  0  0  0  0
   33.6311   37.6794   56.5797 H   0  0  0  0  0  0  0  0  0  0  0  0
   33.1266   38.9203   58.6384 H   0  0  0  0  0  0  0  0  0  0  0  0
   31.8257   39.0867   60.8096 H   0  0  0  0  0  0  0  0  0  0  0  0
   31.5101   36.2564   61.9490 H   0  0  0  0  0  0  0  0  0  0  0  0
   31.5616   39.6149   65.3455 H   0  0  0  0  0  0  0  0  0  0  0  0
   30.9555   38.0901   66.0559 H   0  0  0  0  0  0  0  0  0  0  0  0
   33.7569   39.2517   66.1268 H   0  0  0  0  0  0  0  0  0  0  0  0
   32.9065   38.2629   67.3607 H   0  0  0  0  0  0  0  0  0  0  0  0
   34.7679   37.1870   65.5908 H   0  0  0  0  0  0  0  0  0  0  0  0
   33.4020   36.2403   66.2572 H   0  0  0  0  0  0  0  0  0  0  0  0
   31.1744   35.4467   60.2432 H   0  0  0  0  0  0  0  0  0  0  0  0
   29.9986   33.9231   59.4364 H   0  0  0  0  0  0  0  0  0  0  0  0
   30.6636   32.3272   59.0131 H   0  0  0  0  0  0  0  0  0  0  0  0
   31.5445   33.3884   60.1384 H   0  0  0  0  0  0  0  0  0  0  0  0
  1  2  1  0  0  0  0
  1 21  1  0  0  0  0
  1 22  1  0  0  0  0
  1 23  1  0  0  0  0
  2  3  1  0  0  0  0
  3 18  2  0  0  0  0
  3  4  1  0  0  0  0
  4  5  2  0  0  0  0
  4 24  1  0  0  0  0
  5  6  1  0  0  0  0
  5 25  1  0  0  0  0
  6  7  1  0  0  0  0
  6 17  2  0  0  0  0
  7  8  2  0  0  0  0
  7 26  1  0  0  0  0
  8  9  1  0  0  0  0
  8 27  1  0  0  0  0
  9 10  2  0  0  0  0
  9 11  1  0  0  0  0
 11 15  1  0  0  0  0
 11 12  1  0  0  0  0
 12 13  1  0  0  0  0
 12 28  1  0  0  0  0
 12 29  1  0  0  0  0
 13 14  1  0  0  0  0
 13 30  1  0  0  0  0
 13 31  1  0  0  0  0
 14 15  1  0  0  0  0
 14 32  1  0  0  0  0
 14 33  1  0  0  0  0
 15 16  2  0  0  0  0
 17 18  1  0  0  0  0
 17 34  1  0  0  0  0
 18 19  1  0  0  0  0
 19 20  1  0  0  0  0
 20 35  1  0  0  0  0
 20 36  1  0  0  0  0
 20 37  1  0  0  0  0
M  END
$$$$
