ZINC000000032687      none
 OpenBabel11202420153D

 25 27  0  0  0  0  0  0  0  0999 V2000
   32.1592   35.9883   59.1994 O   0  0  0  0  0  0  0  0  0  0  0  0
   32.6641   36.7281   58.3772 C   0  0  0  0  0  0  0  0  0  0  0  0
   32.9471   38.1609   58.5566 C   0  0  0  0  0  0  0  0  0  0  0  0
   32.6888   38.9177   59.6884 C   0  0  0  0  0  0  0  0  0  0  0  0
   32.2324   38.2937   60.8622 C   0  0  0  0  0  0  0  0  0  0  0  0
   31.0325   38.5454   61.5083 C   0  0  0  0  0  0  0  0  0  0  0  0
   30.9967   37.7021   62.6236 C   0  0  0  0  0  0  0  0  0  0  0  0
   32.1462   36.9825   62.6212 C   0  0  0  0  0  0  0  0  0  0  0  0
   32.6285   35.6813   63.9058 Br  0  0  0  0  0  0  0  0  0  0  0  0
   32.8823   37.3366   61.5599 O   0  0  0  0  0  0  0  0  0  0  0  0
   33.5550   38.6368   57.3040 C   0  0  0  0  0  0  0  0  0  0  0  0
   33.9251   39.7716   57.0722 O   0  0  0  0  0  0  0  0  0  0  0  0
   33.6358   37.4827   56.3748 C   0  0  0  0  0  0  0  0  0  0  0  0
   34.1199   37.3781   55.0756 C   0  0  0  0  0  0  0  0  0  0  0  0
   34.0794   36.1603   54.4168 C   0  0  0  0  0  0  0  0  0  0  0  0
   33.5589   35.0447   55.0441 C   0  0  0  0  0  0  0  0  0  0  0  0
   33.0724   35.1330   56.3381 C   0  0  0  0  0  0  0  0  0  0  0  0
   33.1066   36.3483   57.0127 C   0  0  0  0  0  0  0  0  0  0  0  0
   32.8382   39.9872   59.6685 H   0  0  0  0  0  0  0  0  0  0  0  0
   30.2739   39.2536   61.2091 H   0  0  0  0  0  0  0  0  0  0  0  0
   30.2014   37.6363   63.3513 H   0  0  0  0  0  0  0  0  0  0  0  0
   34.5317   38.2457   54.5815 H   0  0  0  0  0  0  0  0  0  0  0  0
   34.4561   36.0824   53.4077 H   0  0  0  0  0  0  0  0  0  0  0  0
   33.5309   34.0992   54.5229 H   0  0  0  0  0  0  0  0  0  0  0  0
   32.6668   34.2574   56.8231 H   0  0  0  0  0  0  0  0  0  0  0  0
  1  2  2  0  0  0  0
  2 18  1  0  0  0  0
  2  3  1  0  0  0  0
  3  4  2  0  0  0  0
  3 11  1  0  0  0  0
  4  5  1  0  0  0  0
  4 19  1  0  0  0  0
  5 10  1  0  0  0  0
  5  6  2  0  0  0  0
  6  7  1  0  0  0  0
  6 20  1  0  0  0  0
  7  8  2  0  0  0  0
  7 21  1  0  0  0  0
  8  9  1  0  0  0  0
  8 10  1  0  0  0  0
 11 12  2  0  0  0  0
 11 13  1  0  0  0  0
 13 18  2  0  0  0  0
 13 14  1  0  0  0  0
 14 15  2  0  0  0  0
 14 22  1  0  0  0  0
 15 16  1  0  0  0  0
 15 23  1  0  0  0  0
 16 17  2  0  0  0  0
 16 24  1  0  0  0  0
 17 18  1  0  0  0  0
 17 25  1  0  0  0  0
M  END
$$$$
