ZINC000000045400      none
 OpenBabel11202420153D

 34 35  0  0  0  0  0  0  0  0999 V2000
   28.4176   35.4913   65.7703 C   0  0  0  0  0  0  0  0  0  0  0  0
   29.3749   35.8354   66.9132 C   0  0  0  0  0  0  0  0  0  0  0  0
   29.2753   34.7650   68.0017 C   0  0  0  0  0  0  0  0  0  0  0  0
   28.9989   37.1971   67.5009 C   0  0  0  0  0  0  0  0  0  0  0  0
   30.7863   35.8876   66.3875 C   0  0  0  0  0  0  0  0  0  0  0  0
   31.6296   35.1419   66.8391 O   0  0  0  0  0  0  0  0  0  0  0  0
   31.1116   36.7628   65.4155 N   0  0  0  0  0  0  0  0  0  0  0  0
   32.4836   36.8134   64.9045 C   0  0  0  0  0  0  0  0  0  0  0  0
   33.4647   37.1561   66.0274 C   0  0  0  0  0  0  0  0  0  0  0  0
   33.3893   36.1797   67.0267 F   0  0  0  0  0  0  0  0  0  0  0  0
   34.7652   37.1980   65.5136 F   0  0  0  0  0  0  0  0  0  0  0  0
   33.1366   38.4037   66.5687 F   0  0  0  0  0  0  0  0  0  0  0  0
   32.5890   37.7681   63.8317 O   0  0  0  0  0  0  0  0  0  0  0  0
   32.3594   37.0583   62.6884 C   0  0  0  0  0  0  0  0  0  0  0  0
   32.0263   37.4644   61.4064 C   0  0  0  0  0  0  0  0  0  0  0  0
   31.8462   36.5253   60.4082 C   0  0  0  0  0  0  0  0  0  0  0  0
   31.9985   35.1795   60.6854 C   0  0  0  0  0  0  0  0  0  0  0  0
   32.3317   34.7670   61.9621 C   0  0  0  0  0  0  0  0  0  0  0  0
   32.5134   35.7026   62.9676 C   0  0  0  0  0  0  0  0  0  0  0  0
   32.8395   35.5629   64.2857 O   0  0  0  0  0  0  0  0  0  0  0  0
   28.6854   34.5214   65.3516 H   0  0  0  0  0  0  0  0  0  0  0  0
   27.3967   35.4536   66.1505 H   0  0  0  0  0  0  0  0  0  0  0  0
   28.4884   36.2540   64.9948 H   0  0  0  0  0  0  0  0  0  0  0  0
   29.9574   35.0102   68.8158 H   0  0  0  0  0  0  0  0  0  0  0  0
   28.2545   34.7274   68.3819 H   0  0  0  0  0  0  0  0  0  0  0  0
   29.5431   33.7950   67.5830 H   0  0  0  0  0  0  0  0  0  0  0  0
   29.0699   37.9598   66.7253 H   0  0  0  0  0  0  0  0  0  0  0  0
   27.9780   37.1594   67.8810 H   0  0  0  0  0  0  0  0  0  0  0  0
   29.6810   37.4423   68.3150 H   0  0  0  0  0  0  0  0  0  0  0  0
   30.4371   37.3591   65.0543 H   0  0  0  0  0  0  0  0  0  0  0  0
   31.9070   38.5151   61.1869 H   0  0  0  0  0  0  0  0  0  0  0  0
   31.5863   36.8436   59.4094 H   0  0  0  0  0  0  0  0  0  0  0  0
   31.8575   34.4487   59.9028 H   0  0  0  0  0  0  0  0  0  0  0  0
   32.4507   33.7151   62.1758 H   0  0  0  0  0  0  0  0  0  0  0  0
  1  2  1  0  0  0  0
  1 21  1  0  0  0  0
  1 22  1  0  0  0  0
  1 23  1  0  0  0  0
  2  3  1  0  0  0  0
  2  4  1  0  0  0  0
  2  5  1  0  0  0  0
  3 24  1  0  0  0  0
  3 25  1  0  0  0  0
  3 26  1  0  0  0  0
  4 27  1  0  0  0  0
  4 28  1  0  0  0  0
  4 29  1  0  0  0  0
  5  6  2  0  0  0  0
  5  7  1  0  0  0  0
  7  8  1  0  0  0  0
  7 30  1  0  0  0  0
  8 20  1  0  0  0  0
  8  9  1  0  0  0  0
  8 13  1  0  0  0  0
  9 10  1  0  0  0  0
  9 11  1  0  0  0  0
  9 12  1  0  0  0  0
 13 14  1  0  0  0  0
 14 19  2  0  0  0  0
 14 15  1  0  0  0  0
 15 16  2  0  0  0  0
 15 31  1  0  0  0  0
 16 17  1  0  0  0  0
 16 32  1  0  0  0  0
 17 18  2  0  0  0  0
 17 33  1  0  0  0  0
 18 19  1  0  0  0  0
 18 34  1  0  0  0  0
 19 20  1  0  0  0  0
M  END
$$$$
