ZINC000000039712      none
 OpenBabel11202420153D

 24 25  0  0  0  0  0  0  0  0999 V2000
   33.5208   40.6389   58.7580 N   0  0  0  0  0  0  0  0  0  0  0  0
   33.0138   39.6724   59.5795 N   0  0  0  0  0  0  0  0  0  0  0  0
   32.8825   38.3664   59.1186 C   0  0  0  0  0  0  0  0  0  0  0  0
   33.2478   38.0568   57.8843 N   0  0  0  0  0  0  0  0  0  0  0  0
   33.1426   36.8639   57.4223 N   0  0  0  0  0  0  0  0  0  0  0  0
   32.6623   35.8707   58.1440 C   0  0  0  0  0  0  0  0  0  0  0  0
   32.5440   34.2791   57.4610 Cl  0  0  0  0  0  0  0  0  0  0  0  0
   32.2495   36.0989   59.4542 C   0  0  0  0  0  0  0  0  0  0  0  0
   32.3644   37.3748   59.9568 C   0  0  0  0  0  0  0  0  0  0  0  0
   31.9650   37.7360   61.3594 C   0  0  0  0  0  0  0  0  0  0  0  0
   31.0507   36.6609   61.9467 C   0  0  0  0  0  0  0  0  0  0  0  0
   31.7147   35.2935   61.7476 C   0  0  0  0  0  0  0  0  0  0  0  0
   31.6953   34.9559   60.2569 C   0  0  0  0  0  0  0  0  0  0  0  0
   33.5558   41.5311   59.2279 H   0  0  0  0  0  0  0  0  0  0  0  0
   34.4312   40.3771   58.4105 H   0  0  0  0  0  0  0  0  0  0  0  0
   32.7455   39.8967   60.4843 H   0  0  0  0  0  0  0  0  0  0  0  0
   32.8586   37.8260   61.9770 H   0  0  0  0  0  0  0  0  0  0  0  0
   31.4390   38.6906   61.3499 H   0  0  0  0  0  0  0  0  0  0  0  0
   30.0887   36.6786   61.4344 H   0  0  0  0  0  0  0  0  0  0  0  0
   30.9022   36.8441   63.0109 H   0  0  0  0  0  0  0  0  0  0  0  0
   31.1630   34.5344   62.3021 H   0  0  0  0  0  0  0  0  0  0  0  0
   32.7452   35.3321   62.1008 H   0  0  0  0  0  0  0  0  0  0  0  0
   30.6695   34.7602   59.9448 H   0  0  0  0  0  0  0  0  0  0  0  0
   32.3009   34.0664   60.0834 H   0  0  0  0  0  0  0  0  0  0  0  0
  1  2  1  0  0  0  0
  1 14  1  0  0  0  0
  1 15  1  0  0  0  0
  2  3  1  0  0  0  0
  2 16  1  0  0  0  0
  3  9  2  0  0  0  0
  3  4  1  0  0  0  0
  4  5  2  0  0  0  0
  5  6  1  0  0  0  0
  6  7  1  0  0  0  0
  6  8  2  0  0  0  0
  8 13  1  0  0  0  0
  8  9  1  0  0  0  0
  9 10  1  0  0  0  0
 10 11  1  0  0  0  0
 10 17  1  0  0  0  0
 10 18  1  0  0  0  0
 11 12  1  0  0  0  0
 11 19  1  0  0  0  0
 11 20  1  0  0  0  0
 12 13  1  0  0  0  0
 12 21  1  0  0  0  0
 12 22  1  0  0  0  0
 13 23  1  0  0  0  0
 13 24  1  0  0  0  0
M  END
$$$$
