ZINC000000005245      none
 OpenBabel11202420153D

 24 25  0  0  0  0  0  0  0  0999 V2000
   31.0253   38.6002   62.8168 C   0  0  0  0  0  0  0  0  0  0  0  0
   30.2767   37.6234   62.0223 N   0  0  0  0  0  0  0  0  0  0  0  0
   28.9516   37.3746   62.0992 C   0  0  0  0  0  0  0  0  0  0  0  0
   28.6504   36.4413   61.2382 N   0  0  0  0  0  0  0  0  0  0  0  0
   29.7603   36.0685   60.5836 C   0  0  0  0  0  0  0  0  0  0  0  0
   30.7896   36.7922   61.0633 C   0  0  0  0  0  0  0  0  0  0  0  0
   32.2288   36.7080   60.6240 C   0  0  0  0  0  0  0  0  0  0  0  0
   32.4580   37.6437   59.5202 N   0  0  0  0  0  0  0  0  0  0  0  0
   32.2673   39.0424   59.6120 O   0  0  0  0  0  0  0  0  0  0  0  0
   32.9909   39.6585   58.5296 C   0  0  0  0  0  0  0  0  0  0  0  0
   33.0153   38.5403   57.4624 C   0  0  0  0  0  0  0  0  0  0  0  0
   32.8765   37.2779   58.2925 C   0  0  0  0  0  0  0  0  0  0  0  0
   33.1012   36.1460   57.9193 O   0  0  0  0  0  0  0  0  0  0  0  0
   31.0349   39.5592   62.2987 H   0  0  0  0  0  0  0  0  0  0  0  0
   30.5493   38.7181   63.7903 H   0  0  0  0  0  0  0  0  0  0  0  0
   32.0486   38.2505   62.9528 H   0  0  0  0  0  0  0  0  0  0  0  0
   28.2563   37.8663   62.7635 H   0  0  0  0  0  0  0  0  0  0  0  0
   29.8186   35.3176   59.8096 H   0  0  0  0  0  0  0  0  0  0  0  0
   32.4484   35.6934   60.2916 H   0  0  0  0  0  0  0  0  0  0  0  0
   32.8795   36.9656   61.4596 H   0  0  0  0  0  0  0  0  0  0  0  0
   32.4602   40.5355   58.1591 H   0  0  0  0  0  0  0  0  0  0  0  0
   34.0027   39.9196   58.8397 H   0  0  0  0  0  0  0  0  0  0  0  0
   33.9613   38.5440   56.9210 H   0  0  0  0  0  0  0  0  0  0  0  0
   32.1757   38.6444   56.7751 H   0  0  0  0  0  0  0  0  0  0  0  0
  1  2  1  0  0  0  0
  1 14  1  0  0  0  0
  1 15  1  0  0  0  0
  1 16  1  0  0  0  0
  2  6  1  0  0  0  0
  2  3  1  0  0  0  0
  3  4  2  0  0  0  0
  3 17  1  0  0  0  0
  4  5  1  0  0  0  0
  5  6  2  0  0  0  0
  5 18  1  0  0  0  0
  6  7  1  0  0  0  0
  7  8  1  0  0  0  0
  7 19  1  0  0  0  0
  7 20  1  0  0  0  0
  8 12  1  0  0  0  0
  8  9  1  0  0  0  0
  9 10  1  0  0  0  0
 10 11  1  0  0  0  0
 10 21  1  0  0  0  0
 10 22  1  0  0  0  0
 11 12  1  0  0  0  0
 11 23  1  0  0  0  0
 11 24  1  0  0  0  0
 12 13  2  0  0  0  0
M  END
$$$$
