ZINC000000038503      none
 OpenBabel11202420153D

 34 35  0  0  0  0  0  0  0  0999 V2000
   33.1818   37.3278   61.9407 O   0  0  0  0  0  0  0  0  0  0  0  0
   32.0116   37.5402   62.1916 C   0  0  0  0  0  0  0  0  0  0  0  0
   31.1041   37.5730   61.1958 N   0  0  0  0  0  0  0  0  0  0  0  0
   31.5280   37.3528   59.8107 C   0  0  0  0  0  0  0  0  0  0  0  0
   32.5502   38.4201   59.4146 C   0  0  0  0  0  0  0  0  0  0  0  0
   32.9863   38.1936   57.9899 C   0  0  0  0  0  0  0  0  0  0  0  0
   33.3662   39.2659   57.2047 C   0  0  0  0  0  0  0  0  0  0  0  0
   33.7708   39.0577   55.8994 C   0  0  0  0  0  0  0  0  0  0  0  0
   33.7857   37.7783   55.3761 C   0  0  0  0  0  0  0  0  0  0  0  0
   33.4007   36.7065   56.1598 C   0  0  0  0  0  0  0  0  0  0  0  0
   33.0010   36.9142   57.4667 C   0  0  0  0  0  0  0  0  0  0  0  0
   31.5839   37.7625   63.5893 C   0  0  0  0  0  0  0  0  0  0  0  0
   32.3123   37.2061   64.6422 C   0  0  0  0  0  0  0  0  0  0  0  0
   31.9080   37.4179   65.9440 C   0  0  0  0  0  0  0  0  0  0  0  0
   30.7802   38.1754   66.2070 C   0  0  0  0  0  0  0  0  0  0  0  0
   30.0570   38.7339   65.1683 C   0  0  0  0  0  0  0  0  0  0  0  0
   28.8552   39.5475   65.4590 N   0  0  0  0  0  0  0  0  0  0  0  0
   28.5038   39.7246   66.6118 O   0  0  0  0  0  0  0  0  0  0  0  0
   28.2175   40.0400   64.5455 O   0  0  0  0  0  0  0  0  0  0  0  0
   30.4506   38.5299   63.8617 C   0  0  0  0  0  0  0  0  0  0  0  0
   30.1702   37.7424   61.3960 H   0  0  0  0  0  0  0  0  0  0  0  0
   31.9807   36.3653   59.7220 H   0  0  0  0  0  0  0  0  0  0  0  0
   30.6623   37.4163   59.1514 H   0  0  0  0  0  0  0  0  0  0  0  0
   32.0974   39.4076   59.5033 H   0  0  0  0  0  0  0  0  0  0  0  0
   33.4158   38.3567   60.0740 H   0  0  0  0  0  0  0  0  0  0  0  0
   33.3504   40.2661   57.6121 H   0  0  0  0  0  0  0  0  0  0  0  0
   34.0712   39.8950   55.2870 H   0  0  0  0  0  0  0  0  0  0  0  0
   34.0975   37.6161   54.3550 H   0  0  0  0  0  0  0  0  0  0  0  0
   33.4119   35.7070   55.7509 H   0  0  0  0  0  0  0  0  0  0  0  0
   32.7000   36.0769   58.0789 H   0  0  0  0  0  0  0  0  0  0  0  0
   33.1904   36.6116   64.4381 H   0  0  0  0  0  0  0  0  0  0  0  0
   32.4704   36.9876   66.7595 H   0  0  0  0  0  0  0  0  0  0  0  0
   30.4655   38.3344   67.2278 H   0  0  0  0  0  0  0  0  0  0  0  0
   29.8830   38.9633   63.0516 H   0  0  0  0  0  0  0  0  0  0  0  0
  1  2  2  0  0  0  0
  2  3  1  0  0  0  0
  2 12  1  0  0  0  0
  3  4  1  0  0  0  0
  3 21  1  0  0  0  0
  4  5  1  0  0  0  0
  4 22  1  0  0  0  0
  4 23  1  0  0  0  0
  5  6  1  0  0  0  0
  5 24  1  0  0  0  0
  5 25  1  0  0  0  0
  6 11  2  0  0  0  0
  6  7  1  0  0  0  0
  7  8  2  0  0  0  0
  7 26  1  0  0  0  0
  8  9  1  0  0  0  0
  8 27  1  0  0  0  0
  9 10  2  0  0  0  0
  9 28  1  0  0  0  0
 10 11  1  0  0  0  0
 10 29  1  0  0  0  0
 11 30  1  0  0  0  0
 12 20  2  0  0  0  0
 12 13  1  0  0  0  0
 13 14  2  0  0  0  0
 13 31  1  0  0  0  0
 14 15  1  0  0  0  0
 14 32  1  0  0  0  0
 15 16  2  0  0  0  0
 15 33  1  0  0  0  0
 16 17  1  0  0  0  0
 16 20  1  0  0  0  0
 17 18  2  0  0  0  0
 17 19  2  0  0  0  0
 20 34  1  0  0  0  0
M  END
$$$$
