ZINC000000042137      none
 OpenBabel11202420153D

 46 47  0  0  0  0  0  0  0  0999 V2000
   29.2520   40.0001   66.5349 C   0  0  0  0  0  0  0  0  0  0  0  0
   28.4140   38.8075   67.0001 C   0  0  0  0  0  0  0  0  0  0  0  0
   28.8174   37.6355   66.2891 O   0  0  0  0  0  0  0  0  0  0  0  0
   28.1720   36.4880   66.5835 C   0  0  0  0  0  0  0  0  0  0  0  0
   27.2907   36.4838   67.4214 O   0  0  0  0  0  0  0  0  0  0  0  0
   28.5321   35.2489   65.8948 C   0  0  0  0  0  0  0  0  0  0  0  0
   29.4877   35.1000   64.9440 C   0  0  0  0  0  0  0  0  0  0  0  0
   30.2934   36.1047   64.4573 N   0  0  0  0  0  0  0  0  0  0  0  0
   30.7860   36.0458   63.0789 C   0  0  0  0  0  0  0  0  0  0  0  0
   32.0096   36.9531   62.9353 C   0  0  0  0  0  0  0  0  0  0  0  0
   32.5241   36.8914   61.4957 C   0  0  0  0  0  0  0  0  0  0  0  0
   31.4252   37.3622   60.5409 C   0  0  0  0  0  0  0  0  0  0  0  0
   30.2017   36.4549   60.6844 C   0  0  0  0  0  0  0  0  0  0  0  0
   29.6872   36.5165   62.1240 C   0  0  0  0  0  0  0  0  0  0  0  0
   29.5214   33.6856   64.5087 C   0  0  0  0  0  0  0  0  0  0  0  0
   30.2676   33.2337   63.6633 O   0  0  0  0  0  0  0  0  0  0  0  0
   28.6058   32.9739   65.1906 N   0  0  0  0  0  0  0  0  0  0  0  0
   28.3607   31.6373   65.0512 N   0  0  0  0  0  0  0  0  0  0  0  0
   28.5864   30.9259   66.3165 C   0  0  0  0  0  0  0  0  0  0  0  0
   27.0005   31.4010   64.5497 C   0  0  0  0  0  0  0  0  0  0  0  0
   27.9118   33.8874   66.1056 C   0  0  0  0  0  0  0  0  0  0  0  0
   28.9442   40.8941   67.0773 H   0  0  0  0  0  0  0  0  0  0  0  0
   30.3060   39.8017   66.7299 H   0  0  0  0  0  0  0  0  0  0  0  0
   29.1029   40.1541   65.4661 H   0  0  0  0  0  0  0  0  0  0  0  0
   27.3600   39.0061   66.8051 H   0  0  0  0  0  0  0  0  0  0  0  0
   28.5631   38.6535   68.0689 H   0  0  0  0  0  0  0  0  0  0  0  0
   30.5349   36.8517   65.0272 H   0  0  0  0  0  0  0  0  0  0  0  0
   31.0638   35.0201   62.8358 H   0  0  0  0  0  0  0  0  0  0  0  0
   31.7319   37.9787   63.1784 H   0  0  0  0  0  0  0  0  0  0  0  0
   32.7924   36.6178   63.6156 H   0  0  0  0  0  0  0  0  0  0  0  0
   33.3958   37.5378   61.3935 H   0  0  0  0  0  0  0  0  0  0  0  0
   32.8018   35.8659   61.2527 H   0  0  0  0  0  0  0  0  0  0  0  0
   31.7917   37.3183   59.5153 H   0  0  0  0  0  0  0  0  0  0  0  0
   31.1475   38.3878   60.7838 H   0  0  0  0  0  0  0  0  0  0  0  0
   30.4794   35.4293   60.4414 H   0  0  0  0  0  0  0  0  0  0  0  0
   29.4189   36.7902   60.0041 H   0  0  0  0  0  0  0  0  0  0  0  0
   28.8155   35.8701   62.2263 H   0  0  0  0  0  0  0  0  0  0  0  0
   29.4095   37.5421   62.3671 H   0  0  0  0  0  0  0  0  0  0  0  0
   27.9205   31.3254   67.0816 H   0  0  0  0  0  0  0  0  0  0  0  0
   28.3842   29.8639   66.1775 H   0  0  0  0  0  0  0  0  0  0  0  0
   29.6217   31.0608   66.6296 H   0  0  0  0  0  0  0  0  0  0  0  0
   26.8829   31.8810   63.5782 H   0  0  0  0  0  0  0  0  0  0  0  0
   26.8318   30.3288   64.4479 H   0  0  0  0  0  0  0  0  0  0  0  0
   26.2772   31.8175   65.2508 H   0  0  0  0  0  0  0  0  0  0  0  0
   28.0561   33.5657   67.1371 H   0  0  0  0  0  0  0  0  0  0  0  0
   26.8484   33.9195   65.8679 H   0  0  0  0  0  0  0  0  0  0  0  0
  1  2  1  0  0  0  0
  1 22  1  0  0  0  0
  1 23  1  0  0  0  0
  1 24  1  0  0  0  0
  2  3  1  0  0  0  0
  2 25  1  0  0  0  0
  2 26  1  0  0  0  0
  3  4  1  0  0  0  0
  4  5  2  0  0  0  0
  4  6  1  0  0  0  0
  6 21  1  0  0  0  0
  6  7  2  0  0  0  0
  7  8  1  0  0  0  0
  7 15  1  0  0  0  0
  8  9  1  0  0  0  0
  8 27  1  0  0  0  0
  9 14  1  0  0  0  0
  9 10  1  0  0  0  0
  9 28  1  0  0  0  0
 10 11  1  0  0  0  0
 10 29  1  0  0  0  0
 10 30  1  0  0  0  0
 11 12  1  0  0  0  0
 11 31  1  0  0  0  0
 11 32  1  0  0  0  0
 12 13  1  0  0  0  0
 12 33  1  0  0  0  0
 12 34  1  0  0  0  0
 13 14  1  0  0  0  0
 13 35  1  0  0  0  0
 13 36  1  0  0  0  0
 14 37  1  0  0  0  0
 14 38  1  0  0  0  0
 15 16  2  0  0  0  0
 15 17  1  0  0  0  0
 17 18  1  0  0  0  0
 17 21  1  0  0  0  0
 18 19  1  0  0  0  0
 18 20  1  0  0  0  0
 19 39  1  0  0  0  0
 19 40  1  0  0  0  0
 19 41  1  0  0  0  0
 20 42  1  0  0  0  0
 20 43  1  0  0  0  0
 20 44  1  0  0  0  0
 21 45  1  0  0  0  0
 21 46  1  0  0  0  0
M  END
$$$$
