ZINC000000041062      none
 OpenBabel11202420153D

 34 36  0  0  0  0  0  0  0  0999 V2000
   33.9108   39.8847   56.4755 C   0  0  0  0  0  0  0  0  0  0  0  0
   33.5393   38.5729   57.1173 C   0  0  0  0  0  0  0  0  0  0  0  0
   32.9545   38.4079   58.7622 S   0  0  0  0  0  0  0  0  0  0  0  0
   32.8084   36.6634   58.6067 C   0  0  0  0  0  0  0  0  0  0  0  0
   32.4018   35.7299   59.4767 N   0  0  0  0  0  0  0  0  0  0  0  0
   32.3712   34.4608   59.1426 C   0  0  0  0  0  0  0  0  0  0  0  0
   32.7354   34.0397   57.9447 N   0  0  0  0  0  0  0  0  0  0  0  0
   33.1521   34.8880   57.0167 C   0  0  0  0  0  0  0  0  0  0  0  0
   33.5297   34.4321   55.7664 N   0  0  0  0  0  0  0  0  0  0  0  0
   32.3911   33.8328   55.0588 C   0  0  0  0  0  0  0  0  0  0  0  0
   32.8081   33.4731   53.6310 C   0  0  0  0  0  0  0  0  0  0  0  0
   33.9790   32.4876   53.6795 C   0  0  0  0  0  0  0  0  0  0  0  0
   35.1339   33.1173   54.4632 C   0  0  0  0  0  0  0  0  0  0  0  0
   34.6494   33.4874   55.8670 C   0  0  0  0  0  0  0  0  0  0  0  0
   33.2046   36.2719   57.3253 C   0  0  0  0  0  0  0  0  0  0  0  0
   33.6133   37.4026   56.5135 C   0  0  0  0  0  0  0  0  0  0  0  0
   34.0852   37.2518   55.0903 C   0  0  0  0  0  0  0  0  0  0  0  0
   33.0344   40.3117   55.9880 H   0  0  0  0  0  0  0  0  0  0  0  0
   34.2733   40.5730   57.2390 H   0  0  0  0  0  0  0  0  0  0  0  0
   34.6933   39.7184   55.7352 H   0  0  0  0  0  0  0  0  0  0  0  0
   32.0369   33.7370   59.8713 H   0  0  0  0  0  0  0  0  0  0  0  0
   32.0720   32.9313   55.5820 H   0  0  0  0  0  0  0  0  0  0  0  0
   31.5668   34.5454   55.0279 H   0  0  0  0  0  0  0  0  0  0  0  0
   33.1141   34.3762   53.1029 H   0  0  0  0  0  0  0  0  0  0  0  0
   31.9673   33.0140   53.1110 H   0  0  0  0  0  0  0  0  0  0  0  0
   34.3076   32.2621   52.6649 H   0  0  0  0  0  0  0  0  0  0  0  0
   33.6625   31.5685   54.1726 H   0  0  0  0  0  0  0  0  0  0  0  0
   35.4765   34.0148   53.9481 H   0  0  0  0  0  0  0  0  0  0  0  0
   35.9547   32.4041   54.5378 H   0  0  0  0  0  0  0  0  0  0  0  0
   35.4654   33.9491   56.4228 H   0  0  0  0  0  0  0  0  0  0  0  0
   34.3197   32.5873   56.3861 H   0  0  0  0  0  0  0  0  0  0  0  0
   33.2243   37.2328   54.4221 H   0  0  0  0  0  0  0  0  0  0  0  0
   34.7288   38.0922   54.8299 H   0  0  0  0  0  0  0  0  0  0  0  0
   34.6441   36.3213   54.9895 H   0  0  0  0  0  0  0  0  0  0  0  0
  1  2  1  0  0  0  0
  1 18  1  0  0  0  0
  1 19  1  0  0  0  0
  1 20  1  0  0  0  0
  2 16  2  0  0  0  0
  2  3  1  0  0  0  0
  3  4  1  0  0  0  0
  4 15  2  0  0  0  0
  4  5  1  0  0  0  0
  5  6  2  0  0  0  0
  6  7  1  0  0  0  0
  6 21  1  0  0  0  0
  7  8  2  0  0  0  0
  8  9  1  0  0  0  0
  8 15  1  0  0  0  0
  9 14  1  0  0  0  0
  9 10  1  0  0  0  0
 10 11  1  0  0  0  0
 10 22  1  0  0  0  0
 10 23  1  0  0  0  0
 11 12  1  0  0  0  0
 11 24  1  0  0  0  0
 11 25  1  0  0  0  0
 12 13  1  0  0  0  0
 12 26  1  0  0  0  0
 12 27  1  0  0  0  0
 13 14  1  0  0  0  0
 13 28  1  0  0  0  0
 13 29  1  0  0  0  0
 14 30  1  0  0  0  0
 14 31  1  0  0  0  0
 15 16  1  0  0  0  0
 16 17  1  0  0  0  0
 17 32  1  0  0  0  0
 17 33  1  0  0  0  0
 17 34  1  0  0  0  0
M  END
$$$$
