ZINC000000037112      none
 OpenBabel11202420153D

 39 41  0  0  0  0  0  0  0  0999 V2000
   35.2873   36.9920   52.4625 C   0  0  0  0  0  0  0  0  0  0  0  0
   34.9672   38.2826   53.2194 C   0  0  0  0  0  0  0  0  0  0  0  0
   34.4541   37.9559   54.5378 O   0  0  0  0  0  0  0  0  0  0  0  0
   34.1213   38.9886   55.3382 C   0  0  0  0  0  0  0  0  0  0  0  0
   34.2563   40.1311   54.9446 O   0  0  0  0  0  0  0  0  0  0  0  0
   33.5961   38.7337   56.6845 C   0  0  0  0  0  0  0  0  0  0  0  0
   33.2120   39.7075   57.6366 C   0  0  0  0  0  0  0  0  0  0  0  0
   32.7995   39.0898   58.7076 N   0  0  0  0  0  0  0  0  0  0  0  0
   32.8936   37.7083   58.5077 N   0  0  0  0  0  0  0  0  0  0  0  0
   32.5409   36.7204   59.4368 C   0  0  0  0  0  0  0  0  0  0  0  0
   32.0817   35.4855   58.9987 C   0  0  0  0  0  0  0  0  0  0  0  0
   31.7353   34.5137   59.9170 C   0  0  0  0  0  0  0  0  0  0  0  0
   31.8456   34.7695   61.2714 C   0  0  0  0  0  0  0  0  0  0  0  0
   32.3027   35.9984   61.7109 C   0  0  0  0  0  0  0  0  0  0  0  0
   32.6502   36.9744   60.7976 C   0  0  0  0  0  0  0  0  0  0  0  0
   33.3873   37.4877   57.2700 C   0  0  0  0  0  0  0  0  0  0  0  0
   33.6360   36.2547   56.6913 N   0  0  0  0  0  0  0  0  0  0  0  0
   33.0025   35.9038   55.5546 C   0  0  0  0  0  0  0  0  0  0  0  0
   32.2148   36.6681   55.0387 O   0  0  0  0  0  0  0  0  0  0  0  0
   33.2730   34.5617   54.9247 C   0  0  0  0  0  0  0  0  0  0  0  0
   33.5574   33.3861   55.8616 C   0  0  0  0  0  0  0  0  0  0  0  0
   34.6918   34.0006   55.0391 C   0  0  0  0  0  0  0  0  0  0  0  0
   36.0369   36.4240   53.0136 H   0  0  0  0  0  0  0  0  0  0  0  0
   34.3806   36.3952   52.3620 H   0  0  0  0  0  0  0  0  0  0  0  0
   35.6725   37.2371   51.4727 H   0  0  0  0  0  0  0  0  0  0  0  0
   34.2177   38.8505   52.6683 H   0  0  0  0  0  0  0  0  0  0  0  0
   35.8738   38.8792   53.3198 H   0  0  0  0  0  0  0  0  0  0  0  0
   33.2538   40.7780   57.4995 H   0  0  0  0  0  0  0  0  0  0  0  0
   31.9953   35.2851   57.9410 H   0  0  0  0  0  0  0  0  0  0  0  0
   31.3781   33.5529   59.5768 H   0  0  0  0  0  0  0  0  0  0  0  0
   31.5703   34.0094   61.9875 H   0  0  0  0  0  0  0  0  0  0  0  0
   32.3875   36.1953   62.7693 H   0  0  0  0  0  0  0  0  0  0  0  0
   33.0070   37.9341   61.1414 H   0  0  0  0  0  0  0  0  0  0  0  0
   34.2661   35.6434   57.1039 H   0  0  0  0  0  0  0  0  0  0  0  0
   32.7216   34.3530   54.0079 H   0  0  0  0  0  0  0  0  0  0  0  0
   33.5489   33.5834   56.9337 H   0  0  0  0  0  0  0  0  0  0  0  0
   33.1930   32.4037   55.5614 H   0  0  0  0  0  0  0  0  0  0  0  0
   35.0736   33.4226   54.1978 H   0  0  0  0  0  0  0  0  0  0  0  0
   35.4297   34.6025   55.5696 H   0  0  0  0  0  0  0  0  0  0  0  0
  1  2  1  0  0  0  0
  1 23  1  0  0  0  0
  1 24  1  0  0  0  0
  1 25  1  0  0  0  0
  2  3  1  0  0  0  0
  2 26  1  0  0  0  0
  2 27  1  0  0  0  0
  3  4  1  0  0  0  0
  4  5  2  0  0  0  0
  4  6  1  0  0  0  0
  6 16  2  0  0  0  0
  6  7  1  0  0  0  0
  7  8  2  0  0  0  0
  7 28  1  0  0  0  0
  8  9  1  0  0  0  0
  9 10  1  0  0  0  0
  9 16  1  0  0  0  0
 10 15  2  0  0  0  0
 10 11  1  0  0  0  0
 11 12  2  0  0  0  0
 11 29  1  0  0  0  0
 12 13  1  0  0  0  0
 12 30  1  0  0  0  0
 13 14  2  0  0  0  0
 13 31  1  0  0  0  0
 14 15  1  0  0  0  0
 14 32  1  0  0  0  0
 15 33  1  0  0  0  0
 16 17  1  0  0  0  0
 17 18  1  0  0  0  0
 17 34  1  0  0  0  0
 18 19  2  0  0  0  0
 18 20  1  0  0  0  0
 20 22  1  0  0  0  0
 20 21  1  0  0  0  0
 20 35  1  0  0  0  0
 21 22  1  0  0  0  0
 21 36  1  0  0  0  0
 21 37  1  0  0  0  0
 22 38  1  0  0  0  0
 22 39  1  0  0  0  0
M  END
$$$$
