ZINC000000052467      none
 OpenBabel11202420153D

 25 26  0  0  0  0  0  0  0  0999 V2000
   32.1383   33.8057   56.0727 C   0  0  0  0  0  0  0  0  0  0  0  0
   32.0113   34.2600   57.5039 C   0  0  0  0  0  0  0  0  0  0  0  0
   31.3378   33.4788   58.4200 C   0  0  0  0  0  0  0  0  0  0  0  0
   31.2211   33.8940   59.7346 C   0  0  0  0  0  0  0  0  0  0  0  0
   31.7778   35.0946   60.1401 C   0  0  0  0  0  0  0  0  0  0  0  0
   32.4579   35.8831   59.2360 C   0  0  0  0  0  0  0  0  0  0  0  0
   32.5756   35.4725   57.9061 C   0  0  0  0  0  0  0  0  0  0  0  0
   33.2984   36.3138   56.9313 C   0  0  0  0  0  0  0  0  0  0  0  0
   33.8776   35.7985   55.9960 O   0  0  0  0  0  0  0  0  0  0  0  0
   33.3157   37.6532   57.0792 N   0  0  0  0  0  0  0  0  0  0  0  0
   33.3994   38.5757   56.0947 C   0  0  0  0  0  0  0  0  0  0  0  0
   33.3863   39.7604   56.6461 N   0  0  0  0  0  0  0  0  0  0  0  0
   33.2956   39.6409   57.9766 C   0  0  0  0  0  0  0  0  0  0  0  0
   33.2563   40.6974   58.8840 N   0  0  0  0  0  0  0  0  0  0  0  0
   33.2497   38.3674   58.2868 N   0  0  0  0  0  0  0  0  0  0  0  0
   33.1051   33.3231   55.9290 H   0  0  0  0  0  0  0  0  0  0  0  0
   31.3415   33.0982   55.8440 H   0  0  0  0  0  0  0  0  0  0  0  0
   32.0604   34.6674   55.4097 H   0  0  0  0  0  0  0  0  0  0  0  0
   30.9010   32.5410   58.1105 H   0  0  0  0  0  0  0  0  0  0  0  0
   30.6927   33.2786   60.4477 H   0  0  0  0  0  0  0  0  0  0  0  0
   31.6825   35.4127   61.1677 H   0  0  0  0  0  0  0  0  0  0  0  0
   32.8957   36.8175   59.5549 H   0  0  0  0  0  0  0  0  0  0  0  0
   33.4650   38.3696   55.0367 H   0  0  0  0  0  0  0  0  0  0  0  0
   33.2955   41.6126   58.5648 H   0  0  0  0  0  0  0  0  0  0  0  0
   33.1900   40.5179   59.8349 H   0  0  0  0  0  0  0  0  0  0  0  0
  1  2  1  0  0  0  0
  1 16  1  0  0  0  0
  1 17  1  0  0  0  0
  1 18  1  0  0  0  0
  2  7  2  0  0  0  0
  2  3  1  0  0  0  0
  3  4  2  0  0  0  0
  3 19  1  0  0  0  0
  4  5  1  0  0  0  0
  4 20  1  0  0  0  0
  5  6  2  0  0  0  0
  5 21  1  0  0  0  0
  6  7  1  0  0  0  0
  6 22  1  0  0  0  0
  7  8  1  0  0  0  0
  8  9  2  0  0  0  0
  8 10  1  0  0  0  0
 10 15  1  0  0  0  0
 10 11  1  0  0  0  0
 11 12  2  0  0  0  0
 11 23  1  0  0  0  0
 12 13  1  0  0  0  0
 13 14  1  0  0  0  0
 13 15  2  0  0  0  0
 14 24  1  0  0  0  0
 14 25  1  0  0  0  0
M  END
$$$$
