ZINC000000011406      none
 OpenBabel11202420153D

 26 27  0  0  0  0  0  0  0  0999 V2000
   34.3870   38.3241   53.8526 N   0  0  0  0  0  0  0  0  0  0  0  0
   34.0782   38.3559   54.9454 C   0  0  0  0  0  0  0  0  0  0  0  0
   33.6891   38.3959   56.3229 C   0  0  0  0  0  0  0  0  0  0  0  0
   33.5516   39.6239   56.9766 C   0  0  0  0  0  0  0  0  0  0  0  0
   33.1813   39.6584   58.3022 C   0  0  0  0  0  0  0  0  0  0  0  0
   32.9343   38.4734   58.9885 C   0  0  0  0  0  0  0  0  0  0  0  0
   32.5545   38.5123   60.3288 N   0  0  0  0  0  0  0  0  0  0  0  0
   31.3716   37.9907   60.7095 C   0  0  0  0  0  0  0  0  0  0  0  0
   30.3356   37.2800   59.5465 S   0  0  0  0  0  0  0  0  0  0  0  0
   30.9686   38.0323   62.1313 C   0  0  0  0  0  0  0  0  0  0  0  0
   30.7167   36.8426   62.8139 C   0  0  0  0  0  0  0  0  0  0  0  0
   30.3447   36.8980   64.1471 C   0  0  0  0  0  0  0  0  0  0  0  0
   30.2270   38.1412   64.7503 C   0  0  0  0  0  0  0  0  0  0  0  0
   30.4876   39.2828   64.0105 C   0  0  0  0  0  0  0  0  0  0  0  0
   30.8443   39.2025   62.7467 N   0  0  0  0  0  0  0  0  0  0  0  0
   33.0660   37.2495   58.3396 C   0  0  0  0  0  0  0  0  0  0  0  0
   33.4405   37.2073   57.0154 C   0  0  0  0  0  0  0  0  0  0  0  0
   33.7389   40.5441   56.4434 H   0  0  0  0  0  0  0  0  0  0  0  0
   33.0782   40.6066   58.8088 H   0  0  0  0  0  0  0  0  0  0  0  0
   33.1416   38.9151   60.9876 H   0  0  0  0  0  0  0  0  0  0  0  0
   30.8141   35.8916   62.3114 H   0  0  0  0  0  0  0  0  0  0  0  0
   30.1472   35.9935   64.7031 H   0  0  0  0  0  0  0  0  0  0  0  0
   29.9345   38.2185   65.7871 H   0  0  0  0  0  0  0  0  0  0  0  0
   30.3964   40.2523   64.4776 H   0  0  0  0  0  0  0  0  0  0  0  0
   32.8738   36.3315   58.8752 H   0  0  0  0  0  0  0  0  0  0  0  0
   33.5418   36.2571   56.5122 H   0  0  0  0  0  0  0  0  0  0  0  0
  1  2  3  0  0  0  0
  2  3  1  0  0  0  0
  3 17  2  0  0  0  0
  3  4  1  0  0  0  0
  4  5  2  0  0  0  0
  4 18  1  0  0  0  0
  5  6  1  0  0  0  0
  5 19  1  0  0  0  0
  6  7  1  0  0  0  0
  6 16  2  0  0  0  0
  7  8  1  0  0  0  0
  7 20  1  0  0  0  0
  8  9  2  0  0  0  0
  8 10  1  0  0  0  0
 10 15  2  0  0  0  0
 10 11  1  0  0  0  0
 11 12  2  0  0  0  0
 11 21  1  0  0  0  0
 12 13  1  0  0  0  0
 12 22  1  0  0  0  0
 13 14  2  0  0  0  0
 13 23  1  0  0  0  0
 14 15  1  0  0  0  0
 14 24  1  0  0  0  0
 16 17  1  0  0  0  0
 16 25  1  0  0  0  0
 17 26  1  0  0  0  0
M  END
$$$$
