ZINC000000035848      none
 OpenBabel11202420153D

 39 40  0  0  1  0  0  0  0  0999 V2000
   33.9837   32.6461   55.3095 C   0  0  0  0  0  0  0  0  0  0  0  0
   33.9542   33.8729   56.0420 O   0  0  0  0  0  0  0  0  0  0  0  0
   32.7751   34.2296   56.5918 C   0  0  0  0  0  0  0  0  0  0  0  0
   31.7985   33.5175   56.4524 O   0  0  0  0  0  0  0  0  0  0  0  0
   32.6706   35.4726   57.3553 C   0  0  0  0  0  0  0  0  0  0  0  0
   32.9329   36.7070   56.8241 C   0  0  0  0  0  0  0  0  0  0  0  0
   33.3232   36.9336   55.5185 N   0  0  0  0  0  0  0  0  0  0  0  0
   32.7191   37.9236   57.9956 S   0  0  0  0  0  0  0  0  0  0  0  0
   32.2557   36.7682   59.2340 C   0  0  0  0  0  0  0  0  0  0  0  0
   32.2789   35.5208   58.7539 C   0  0  0  0  0  0  0  0  0  0  0  0
   31.9327   34.2948   59.5839 C   0  0  0  0  0  0  0  0  0  0  0  0
   31.9912   34.6704   61.0661 C   0  0  0  0  0  0  0  0  0  0  0  0
   31.1625   35.9379   61.2965 C   0  0  1  0  0  0  0  0  0  0  0  0
   30.1804   35.8196   60.8389 H   0  0  0  0  0  0  0  0  0  0  0  0
   31.0035   36.1794   62.7989 C   0  0  0  0  0  0  0  0  0  0  0  0
   32.2252   35.6275   63.5362 C   0  0  0  0  0  0  0  0  0  0  0  0
   30.8831   37.6814   63.0642 C   0  0  0  0  0  0  0  0  0  0  0  0
   29.7430   35.4705   63.2988 C   0  0  0  0  0  0  0  0  0  0  0  0
   31.8843   37.1285   60.6599 C   0  0  0  0  0  0  0  0  0  0  0  0
   34.9886   32.4786   54.9216 H   0  0  0  0  0  0  0  0  0  0  0  0
   33.7066   31.8230   55.9680 H   0  0  0  0  0  0  0  0  0  0  0  0
   33.2786   32.7013   54.4800 H   0  0  0  0  0  0  0  0  0  0  0  0
   33.4288   36.1876   54.9075 H   0  0  0  0  0  0  0  0  0  0  0  0
   33.4917   37.8386   55.2128 H   0  0  0  0  0  0  0  0  0  0  0  0
   32.6509   33.5007   59.3795 H   0  0  0  0  0  0  0  0  0  0  0  0
   30.9288   33.9528   59.3329 H   0  0  0  0  0  0  0  0  0  0  0  0
   33.0260   34.8543   61.3549 H   0  0  0  0  0  0  0  0  0  0  0  0
   31.5850   33.8557   61.6656 H   0  0  0  0  0  0  0  0  0  0  0  0
   33.1232   36.1326   63.1802 H   0  0  0  0  0  0  0  0  0  0  0  0
   32.1119   35.7996   64.6066 H   0  0  0  0  0  0  0  0  0  0  0  0
   32.3110   34.5575   63.3474 H   0  0  0  0  0  0  0  0  0  0  0  0
   30.0127   38.0744   62.5389 H   0  0  0  0  0  0  0  0  0  0  0  0
   30.7698   37.8534   64.1346 H   0  0  0  0  0  0  0  0  0  0  0  0
   31.7811   38.1864   62.7081 H   0  0  0  0  0  0  0  0  0  0  0  0
   29.8288   34.4005   63.1099 H   0  0  0  0  0  0  0  0  0  0  0  0
   29.6298   35.6426   64.3691 H   0  0  0  0  0  0  0  0  0  0  0  0
   28.8726   35.8638   62.7736 H   0  0  0  0  0  0  0  0  0  0  0  0
   32.7875   37.3542   61.2268 H   0  0  0  0  0  0  0  0  0  0  0  0
   31.2253   37.9967   60.6575 H   0  0  0  0  0  0  0  0  0  0  0  0
  1  2  1  0  0  0  0
  1 20  1  0  0  0  0
  1 21  1  0  0  0  0
  1 22  1  0  0  0  0
  2  3  1  0  0  0  0
  3  4  2  0  0  0  0
  3  5  1  0  0  0  0
  5 10  1  0  0  0  0
  5  6  2  0  0  0  0
  6  7  1  0  0  0  0
  6  8  1  0  0  0  0
  7 23  1  0  0  0  0
  7 24  1  0  0  0  0
  8  9  1  0  0  0  0
  9 19  1  0  0  0  0
  9 10  2  0  0  0  0
 10 11  1  0  0  0  0
 11 12  1  0  0  0  0
 11 25  1  0  0  0  0
 11 26  1  0  0  0  0
 12 13  1  0  0  0  0
 12 27  1  0  0  0  0
 12 28  1  0  0  0  0
 13 14  1  6  0  0  0
 13 15  1  0  0  0  0
 13 19  1  0  0  0  0
 15 16  1  0  0  0  0
 15 17  1  0  0  0  0
 15 18  1  0  0  0  0
 16 29  1  0  0  0  0
 16 30  1  0  0  0  0
 16 31  1  0  0  0  0
 17 32  1  0  0  0  0
 17 33  1  0  0  0  0
 17 34  1  0  0  0  0
 18 35  1  0  0  0  0
 18 36  1  0  0  0  0
 18 37  1  0  0  0  0
 19 38  1  0  0  0  0
 19 39  1  0  0  0  0
M  END
$$$$
