ZINC000000001360      none
 OpenBabel11202420153D

 40 42  0  0  1  0  0  0  0  0999 V2000
   29.4674   32.7350   64.1641 O   0  0  0  0  0  0  0  0  0  0  0  0
   30.2843   33.4460   63.6283 C   0  0  0  0  0  0  0  0  0  0  0  0
   31.3690   33.0328   62.9418 O   0  0  0  0  0  0  0  0  0  0  0  0
   31.6190   33.9805   61.8603 C   0  0  0  0  0  0  0  0  0  0  0  0
   31.1640   35.3485   62.4122 C   0  0  1  0  0  0  0  0  0  0  0  0
   32.0209   35.9343   62.7447 H   0  0  0  0  0  0  0  0  0  0  0  0
   30.3592   36.1184   61.3632 C   0  0  0  0  0  0  0  0  0  0  0  0
   31.3032   36.8330   60.4308 C   0  0  0  0  0  0  0  0  0  0  0  0
   31.7185   38.1197   60.7209 C   0  0  0  0  0  0  0  0  0  0  0  0
   32.5851   38.7776   59.8682 C   0  0  0  0  0  0  0  0  0  0  0  0
   33.0387   38.1506   58.7236 C   0  0  0  0  0  0  0  0  0  0  0  0
   32.6232   36.8602   58.4300 C   0  0  0  0  0  0  0  0  0  0  0  0
   33.0682   36.2410   57.3051 O   0  0  0  0  0  0  0  0  0  0  0  0
   31.7574   36.2001   59.2903 C   0  0  0  0  0  0  0  0  0  0  0  0
   30.2694   34.9610   63.6105 C   0  0  2  0  0  0  0  0  0  0  0  0
   29.2543   35.3293   63.4617 H   0  0  0  0  0  0  0  0  0  0  0  0
   30.8515   35.5155   64.9122 C   0  0  0  0  0  0  0  0  0  0  0  0
   30.4436   36.9574   65.0708 C   0  0  0  0  0  0  0  0  0  0  0  0
   31.2426   37.9620   64.5562 C   0  0  0  0  0  0  0  0  0  0  0  0
   30.8709   39.2859   64.6997 C   0  0  0  0  0  0  0  0  0  0  0  0
   29.7028   39.6086   65.3629 C   0  0  0  0  0  0  0  0  0  0  0  0
   28.8973   38.6026   65.8762 C   0  0  0  0  0  0  0  0  0  0  0  0
   27.7455   38.9173   66.5252 O   0  0  0  0  0  0  0  0  0  0  0  0
   29.2723   37.2747   65.7305 C   0  0  0  0  0  0  0  0  0  0  0  0
   31.0338   33.7137   60.9803 H   0  0  0  0  0  0  0  0  0  0  0  0
   32.6811   34.0050   61.6165 H   0  0  0  0  0  0  0  0  0  0  0  0
   29.7440   35.4217   60.7937 H   0  0  0  0  0  0  0  0  0  0  0  0
   29.7182   36.8469   61.8596 H   0  0  0  0  0  0  0  0  0  0  0  0
   31.3654   38.6115   61.6154 H   0  0  0  0  0  0  0  0  0  0  0  0
   32.9084   39.7824   60.0971 H   0  0  0  0  0  0  0  0  0  0  0  0
   33.7163   38.6648   58.0580 H   0  0  0  0  0  0  0  0  0  0  0  0
   32.7239   35.3452   57.1867 H   0  0  0  0  0  0  0  0  0  0  0  0
   31.4363   35.1935   59.0665 H   0  0  0  0  0  0  0  0  0  0  0  0
   31.9390   35.4467   64.8821 H   0  0  0  0  0  0  0  0  0  0  0  0
   30.4740   34.9362   65.7548 H   0  0  0  0  0  0  0  0  0  0  0  0
   32.1583   37.7119   64.0410 H   0  0  0  0  0  0  0  0  0  0  0  0
   31.4967   40.0686   64.2969 H   0  0  0  0  0  0  0  0  0  0  0  0
   29.4149   40.6431   65.4784 H   0  0  0  0  0  0  0  0  0  0  0  0
   27.2529   38.1498   66.8465 H   0  0  0  0  0  0  0  0  0  0  0  0
   28.6487   36.4898   66.1322 H   0  0  0  0  0  0  0  0  0  0  0  0
  1  2  2  0  0  0  0
  2 15  1  0  0  0  0
  2  3  1  0  0  0  0
  3  4  1  0  0  0  0
  4  5  1  0  0  0  0
  4 25  1  0  0  0  0
  4 26  1  0  0  0  0
  5  6  1  1  0  0  0
  5  7  1  0  0  0  0
  5 15  1  0  0  0  0
  7  8  1  0  0  0  0
  7 27  1  0  0  0  0
  7 28  1  0  0  0  0
  8 14  2  0  0  0  0
  8  9  1  0  0  0  0
  9 10  2  0  0  0  0
  9 29  1  0  0  0  0
 10 11  1  0  0  0  0
 10 30  1  0  0  0  0
 11 12  2  0  0  0  0
 11 31  1  0  0  0  0
 12 13  1  0  0  0  0
 12 14  1  0  0  0  0
 13 32  1  0  0  0  0
 14 33  1  0  0  0  0
 15 16  1  6  0  0  0
 15 17  1  0  0  0  0
 17 18  1  0  0  0  0
 17 34  1  0  0  0  0
 17 35  1  0  0  0  0
 18 24  2  0  0  0  0
 18 19  1  0  0  0  0
 19 20  2  0  0  0  0
 19 36  1  0  0  0  0
 20 21  1  0  0  0  0
 20 37  1  0  0  0  0
 21 22  2  0  0  0  0
 21 38  1  0  0  0  0
 22 23  1  0  0  0  0
 22 24  1  0  0  0  0
 23 39  1  0  0  0  0
 24 40  1  0  0  0  0
M  END
$$$$
