ZINC000000004075      none
 OpenBabel11202420153D

 34 35  0  0  0  0  0  0  0  0999 V2000
   32.7663   35.2200   63.3214 C   0  0  0  0  0  0  0  0  0  0  0  0
   31.4359   35.4925   62.7612 N   0  0  0  0  0  0  0  0  0  0  0  0
   30.5111   34.3855   63.0391 C   0  0  0  0  0  0  0  0  0  0  0  0
   30.9283   36.7016   63.2422 C   0  0  0  0  0  0  0  0  0  0  0  0
   30.7351   36.8821   64.6061 C   0  0  0  0  0  0  0  0  0  0  0  0
   30.2335   38.0789   65.0782 C   0  0  0  0  0  0  0  0  0  0  0  0
   29.9234   39.0971   64.1950 C   0  0  0  0  0  0  0  0  0  0  0  0
   30.1144   38.9207   62.8370 C   0  0  0  0  0  0  0  0  0  0  0  0
   30.6159   37.7261   62.3580 C   0  0  0  0  0  0  0  0  0  0  0  0
   30.8241   37.5349   60.8778 C   0  0  0  0  0  0  0  0  0  0  0  0
   32.4951   38.0672   60.4299 S   0  0  0  0  0  0  0  0  0  0  0  0
   32.6860   37.2189   58.8975 C   0  0  0  0  0  0  0  0  0  0  0  0
   32.6314   35.9184   58.7276 N   0  0  0  0  0  0  0  0  0  0  0  0
   32.8167   35.6320   57.4280 C   0  0  0  0  0  0  0  0  0  0  0  0
   33.0025   36.7850   56.7631 C   0  0  0  0  0  0  0  0  0  0  0  0
   32.9211   37.8004   57.6894 N   0  0  0  0  0  0  0  0  0  0  0  0
   33.0612   39.2344   57.4249 C   0  0  0  0  0  0  0  0  0  0  0  0
   32.6984   35.1632   64.4078 H   0  0  0  0  0  0  0  0  0  0  0  0
   33.1382   34.2730   62.9305 H   0  0  0  0  0  0  0  0  0  0  0  0
   33.4495   36.0220   63.0415 H   0  0  0  0  0  0  0  0  0  0  0  0
   29.5546   34.5807   62.5538 H   0  0  0  0  0  0  0  0  0  0  0  0
   30.9308   33.4561   62.6541 H   0  0  0  0  0  0  0  0  0  0  0  0
   30.3615   34.2983   64.1152 H   0  0  0  0  0  0  0  0  0  0  0  0
   30.9767   36.0874   65.2962 H   0  0  0  0  0  0  0  0  0  0  0  0
   30.0833   38.2201   66.1383 H   0  0  0  0  0  0  0  0  0  0  0  0
   29.5355   40.0337   64.5673 H   0  0  0  0  0  0  0  0  0  0  0  0
   29.8716   39.7179   62.1502 H   0  0  0  0  0  0  0  0  0  0  0  0
   30.6987   36.4818   60.6263 H   0  0  0  0  0  0  0  0  0  0  0  0
   30.0940   38.1291   60.3284 H   0  0  0  0  0  0  0  0  0  0  0  0
   32.8208   34.6435   56.9929 H   0  0  0  0  0  0  0  0  0  0  0  0
   33.1817   36.8942   55.7037 H   0  0  0  0  0  0  0  0  0  0  0  0
   34.1083   39.5213   57.5232 H   0  0  0  0  0  0  0  0  0  0  0  0
   32.7181   39.4527   56.4137 H   0  0  0  0  0  0  0  0  0  0  0  0
   32.4618   39.7963   58.1413 H   0  0  0  0  0  0  0  0  0  0  0  0
  1  2  1  0  0  0  0
  1 18  1  0  0  0  0
  1 19  1  0  0  0  0
  1 20  1  0  0  0  0
  2  3  1  0  0  0  0
  2  4  1  0  0  0  0
  3 21  1  0  0  0  0
  3 22  1  0  0  0  0
  3 23  1  0  0  0  0
  4  9  2  0  0  0  0
  4  5  1  0  0  0  0
  5  6  2  0  0  0  0
  5 24  1  0  0  0  0
  6  7  1  0  0  0  0
  6 25  1  0  0  0  0
  7  8  2  0  0  0  0
  7 26  1  0  0  0  0
  8  9  1  0  0  0  0
  8 27  1  0  0  0  0
  9 10  1  0  0  0  0
 10 11  1  0  0  0  0
 10 28  1  0  0  0  0
 10 29  1  0  0  0  0
 11 12  1  0  0  0  0
 12 16  1  0  0  0  0
 12 13  2  0  0  0  0
 13 14  1  0  0  0  0
 14 15  2  0  0  0  0
 14 30  1  0  0  0  0
 15 16  1  0  0  0  0
 15 31  1  0  0  0  0
 16 17  1  0  0  0  0
 17 32  1  0  0  0  0
 17 33  1  0  0  0  0
 17 34  1  0  0  0  0
M  END
$$$$
