ZINC000000008508      none
 OpenBabel11202420153D

 24 25  0  0  0  0  0  0  0  0999 V2000
   32.2140   35.1343   62.5897 C   0  0  0  0  0  0  0  0  0  0  0  0
   32.5244   36.1523   63.6565 C   0  0  0  0  0  0  0  0  0  0  0  0
   33.6470   36.2453   64.3156 N   0  0  0  0  0  0  0  0  0  0  0  0
   33.5676   37.2653   65.1829 C   0  0  0  0  0  0  0  0  0  0  0  0
   32.3517   37.8294   65.0525 C   0  0  0  0  0  0  0  0  0  0  0  0
   31.6875   37.1201   64.0885 N   0  0  0  0  0  0  0  0  0  0  0  0
   30.3251   37.3683   63.6102 C   0  0  0  0  0  0  0  0  0  0  0  0
   30.3025   37.3082   62.1045 C   0  0  0  0  0  0  0  0  0  0  0  0
   29.3062   36.6128   61.4368 C   0  0  0  0  0  0  0  0  0  0  0  0
   29.3157   36.5833   60.0551 C   0  0  0  0  0  0  0  0  0  0  0  0
   30.2626   37.1983   59.3737 N   0  0  0  0  0  0  0  0  0  0  0  0
   31.2281   37.8651   59.9755 C   0  0  0  0  0  0  0  0  0  0  0  0
   31.2810   37.9423   61.3543 C   0  0  0  0  0  0  0  0  0  0  0  0
   32.5074   35.5272   61.6162 H   0  0  0  0  0  0  0  0  0  0  0  0
   32.7654   34.2162   62.7922 H   0  0  0  0  0  0  0  0  0  0  0  0
   31.1446   34.9232   62.5890 H   0  0  0  0  0  0  0  0  0  0  0  0
   34.3445   37.5821   65.8629 H   0  0  0  0  0  0  0  0  0  0  0  0
   31.9726   38.6770   65.6041 H   0  0  0  0  0  0  0  0  0  0  0  0
   29.9986   38.3548   63.9393 H   0  0  0  0  0  0  0  0  0  0  0  0
   29.6544   36.6100   64.0141 H   0  0  0  0  0  0  0  0  0  0  0  0
   28.5305   36.1033   61.9893 H   0  0  0  0  0  0  0  0  0  0  0  0
   28.5413   36.0465   59.5273 H   0  0  0  0  0  0  0  0  0  0  0  0
   31.9865   38.3563   59.3838 H   0  0  0  0  0  0  0  0  0  0  0  0
   32.0747   38.4894   61.8413 H   0  0  0  0  0  0  0  0  0  0  0  0
  1  2  1  0  0  0  0
  1 14  1  0  0  0  0
  1 15  1  0  0  0  0
  1 16  1  0  0  0  0
  2  6  1  0  0  0  0
  2  3  2  0  0  0  0
  3  4  1  0  0  0  0
  4  5  2  0  0  0  0
  4 17  1  0  0  0  0
  5  6  1  0  0  0  0
  5 18  1  0  0  0  0
  6  7  1  0  0  0  0
  7  8  1  0  0  0  0
  7 19  1  0  0  0  0
  7 20  1  0  0  0  0
  8 13  2  0  0  0  0
  8  9  1  0  0  0  0
  9 10  2  0  0  0  0
  9 21  1  0  0  0  0
 10 11  1  0  0  0  0
 10 22  1  0  0  0  0
 11 12  2  0  0  0  0
 12 13  1  0  0  0  0
 12 23  1  0  0  0  0
 13 24  1  0  0  0  0
M  END
$$$$
