ZINC000000036951      none
 OpenBabel11202420153D

 38 42  0  0  1  0  0  0  0  0999 V2000
   34.7345   33.9840   55.0964 C   0  0  0  0  0  0  0  0  0  0  0  0
   33.7293   34.1865   56.2008 C   0  0  0  0  0  0  0  0  0  0  0  0
   32.7578   33.3169   56.5482 C   0  0  0  0  0  0  0  0  0  0  0  0
   32.0463   33.8961   57.6143 C   0  0  0  0  0  0  0  0  0  0  0  0
   32.6351   35.1007   57.8707 C   0  0  0  0  0  0  0  0  0  0  0  0
   32.2280   36.0552   58.9054 C   0  0  0  0  0  0  0  0  0  0  0  0
   31.2194   35.7831   59.6809 N   0  0  0  0  0  0  0  0  0  0  0  0
   30.8959   36.6442   60.7377 N   0  0  0  0  0  0  0  0  0  0  0  0
   29.6469   36.7936   61.1923 C   0  0  0  0  0  0  0  0  0  0  0  0
   28.6709   36.2201   60.7579 O   0  0  0  0  0  0  0  0  0  0  0  0
   29.6396   37.7880   62.3306 C   0  0  1  0  0  0  0  0  0  0  0  0
   28.9582   38.6237   62.1713 H   0  0  0  0  0  0  0  0  0  0  0  0
   29.3620   37.0031   63.6575 C   0  0  2  0  0  0  0  0  0  0  0  0
   28.4740   36.3713   63.6751 H   0  0  0  0  0  0  0  0  0  0  0  0
   29.4783   38.0921   64.7391 C   0  0  0  0  0  0  0  0  0  0  0  0
   30.7489   38.4375   64.8460 C   0  0  0  0  0  0  0  0  0  0  0  0
   31.5637   37.6016   63.8427 C   0  0  2  0  0  0  0  0  0  0  0  0
   32.6313   37.5038   64.0398 H   0  0  0  0  0  0  0  0  0  0  0  0
   31.1394   38.1961   62.4570 C   0  0  1  0  0  0  0  0  0  0  0  0
   31.3081   39.2699   62.3765 H   0  0  0  0  0  0  0  0  0  0  0  0
   31.8120   37.3793   61.3778 C   0  0  0  0  0  0  0  0  0  0  0  0
   32.9985   37.3906   61.1286 O   0  0  0  0  0  0  0  0  0  0  0  0
   30.7264   36.3010   63.8536 C   0  0  0  0  0  0  0  0  0  0  0  0
   31.1316   35.0083   63.2148 C   0  0  0  0  0  0  0  0  0  0  0  0
   30.9729   35.1198   64.7397 C   0  0  0  0  0  0  0  0  0  0  0  0
   33.6525   35.2616   57.0005 O   0  0  0  0  0  0  0  0  0  0  0  0
   34.3360   34.3850   54.1644 H   0  0  0  0  0  0  0  0  0  0  0  0
   35.6602   34.5014   55.3483 H   0  0  0  0  0  0  0  0  0  0  0  0
   34.9343   32.9190   54.9776 H   0  0  0  0  0  0  0  0  0  0  0  0
   32.5607   32.3587   56.0908 H   0  0  0  0  0  0  0  0  0  0  0  0
   31.1995   33.4694   58.1313 H   0  0  0  0  0  0  0  0  0  0  0  0
   32.7651   36.9847   59.0243 H   0  0  0  0  0  0  0  0  0  0  0  0
   28.6607   38.5035   65.3125 H   0  0  0  0  0  0  0  0  0  0  0  0
   31.1477   39.1793   65.5221 H   0  0  0  0  0  0  0  0  0  0  0  0
   30.3687   34.4549   62.6671 H   0  0  0  0  0  0  0  0  0  0  0  0
   32.1437   34.9374   62.8164 H   0  0  0  0  0  0  0  0  0  0  0  0
   31.8809   35.1221   65.3427 H   0  0  0  0  0  0  0  0  0  0  0  0
   30.1062   34.6409   65.1952 H   0  0  0  0  0  0  0  0  0  0  0  0
  1  2  1  0  0  0  0
  1 27  1  0  0  0  0
  1 28  1  0  0  0  0
  1 29  1  0  0  0  0
  2 26  1  0  0  0  0
  2  3  2  0  0  0  0
  3  4  1  0  0  0  0
  3 30  1  0  0  0  0
  4  5  2  0  0  0  0
  4 31  1  0  0  0  0
  5  6  1  0  0  0  0
  5 26  1  0  0  0  0
  6  7  2  0  0  0  0
  6 32  1  0  0  0  0
  7  8  1  0  0  0  0
  8 21  1  0  0  0  0
  8  9  1  0  0  0  0
  9 10  2  0  0  0  0
  9 11  1  0  0  0  0
 11 12  1  6  0  0  0
 11 19  1  0  0  0  0
 11 13  1  0  0  0  0
 13 14  1  1  0  0  0
 13 23  1  0  0  0  0
 13 15  1  0  0  0  0
 15 16  2  0  0  0  0
 15 33  1  0  0  0  0
 16 17  1  0  0  0  0
 16 34  1  0  0  0  0
 17 18  1  1  0  0  0
 17 19  1  0  0  0  0
 17 23  1  0  0  0  0
 19 20  1  6  0  0  0
 19 21  1  0  0  0  0
 21 22  2  0  0  0  0
 23 25  1  0  0  0  0
 23 24  1  0  0  0  0
 24 25  1  0  0  0  0
 24 35  1  0  0  0  0
 24 36  1  0  0  0  0
 25 37  1  0  0  0  0
 25 38  1  0  0  0  0
M  END
$$$$
