ZINC000000051664      none
 OpenBabel11202420153D

 51 52  0  0  1  0  0  0  0  0999 V2000
   33.6648   39.1376   56.5207 C   0  0  0  0  0  0  0  0  0  0  0  0
   33.2100   38.0670   57.4788 C   0  0  0  0  0  0  0  0  0  0  0  0
   33.1772   36.7389   57.0826 C   0  0  0  0  0  0  0  0  0  0  0  0
   32.7529   35.7853   57.9948 C   0  0  0  0  0  0  0  0  0  0  0  0
   32.7007   34.3298   57.6076 C   0  0  0  0  0  0  0  0  0  0  0  0
   32.3939   36.1682   59.2088 N   0  0  0  0  0  0  0  0  0  0  0  0
   32.4369   37.4467   59.5562 C   0  0  0  0  0  0  0  0  0  0  0  0
   31.9496   37.9124   61.1843 S   0  0  0  0  0  0  0  0  0  0  0  0
   32.4058   36.4132   62.0898 C   0  0  0  0  0  0  0  0  0  0  0  0
   32.0704   36.5860   63.5488 C   0  0  0  0  0  0  0  0  0  0  0  0
   32.9428   36.5160   64.3818 O   0  0  0  0  0  0  0  0  0  0  0  0
   30.8022   36.8175   63.9231 O   0  0  0  0  0  0  0  0  0  0  0  0
   30.6034   37.6046   65.1269 C   0  0  1  0  0  0  0  0  0  0  0  0
   31.4399   37.4455   65.8073 H   0  0  0  0  0  0  0  0  0  0  0  0
   30.5203   39.0873   64.7588 C   0  0  0  0  0  0  0  0  0  0  0  0
   30.3108   39.9168   66.0272 C   0  0  2  0  0  0  0  0  0  0  0  0
   30.2516   40.9730   65.7652 H   0  0  0  0  0  0  0  0  0  0  0  0
   31.4850   39.6933   66.9824 C   0  0  0  0  0  0  0  0  0  0  0  0
   29.0102   39.4867   66.7087 C   0  0  0  0  0  0  0  0  0  0  0  0
   29.0932   38.0040   67.0769 C   0  0  0  0  0  0  0  0  0  0  0  0
   29.3028   37.1746   65.8084 C   0  0  2  0  0  0  0  0  0  0  0  0
   28.4663   37.3338   65.1279 H   0  0  0  0  0  0  0  0  0  0  0  0
   29.3859   35.6918   66.1764 C   0  0  0  0  0  0  0  0  0  0  0  0
   28.3559   35.3777   67.2632 C   0  0  0  0  0  0  0  0  0  0  0  0
   29.0955   34.8420   64.9377 C   0  0  0  0  0  0  0  0  0  0  0  0
   32.8377   38.3830   58.7079 N   0  0  0  0  0  0  0  0  0  0  0  0
   32.8070   39.5164   55.9652 H   0  0  0  0  0  0  0  0  0  0  0  0
   34.1252   39.9529   57.0788 H   0  0  0  0  0  0  0  0  0  0  0  0
   34.3915   38.7178   55.8251 H   0  0  0  0  0  0  0  0  0  0  0  0
   33.4755   36.4535   56.0846 H   0  0  0  0  0  0  0  0  0  0  0  0
   31.7204   34.0998   57.1900 H   0  0  0  0  0  0  0  0  0  0  0  0
   33.4700   34.1240   56.8634 H   0  0  0  0  0  0  0  0  0  0  0  0
   32.8737   33.7129   58.4894 H   0  0  0  0  0  0  0  0  0  0  0  0
   31.8535   35.5637   61.6882 H   0  0  0  0  0  0  0  0  0  0  0  0
   33.4757   36.2348   61.9817 H   0  0  0  0  0  0  0  0  0  0  0  0
   31.4469   39.3936   64.2733 H   0  0  0  0  0  0  0  0  0  0  0  0
   29.6838   39.2464   64.0784 H   0  0  0  0  0  0  0  0  0  0  0  0
   32.4116   39.9996   66.4970 H   0  0  0  0  0  0  0  0  0  0  0  0
   31.3358   40.2842   67.8861 H   0  0  0  0  0  0  0  0  0  0  0  0
   31.5442   38.6370   67.2447 H   0  0  0  0  0  0  0  0  0  0  0  0
   28.8610   40.0776   67.6125 H   0  0  0  0  0  0  0  0  0  0  0  0
   28.1737   39.6458   66.0284 H   0  0  0  0  0  0  0  0  0  0  0  0
   29.9298   37.8449   67.7573 H   0  0  0  0  0  0  0  0  0  0  0  0
   28.1667   37.6976   67.5624 H   0  0  0  0  0  0  0  0  0  0  0  0
   30.3856   35.4649   66.5467 H   0  0  0  0  0  0  0  0  0  0  0  0
   27.3562   35.6048   66.8931 H   0  0  0  0  0  0  0  0  0  0  0  0
   28.4150   34.3213   67.5254 H   0  0  0  0  0  0  0  0  0  0  0  0
   28.5627   35.9832   68.1457 H   0  0  0  0  0  0  0  0  0  0  0  0
   29.7654   35.1364   64.1298 H   0  0  0  0  0  0  0  0  0  0  0  0
   29.2524   33.7895   65.1743 H   0  0  0  0  0  0  0  0  0  0  0  0
   28.0621   34.9943   64.6266 H   0  0  0  0  0  0  0  0  0  0  0  0
  1  2  1  0  0  0  0
  1 27  1  0  0  0  0
  1 28  1  0  0  0  0
  1 29  1  0  0  0  0
  2 26  2  0  0  0  0
  2  3  1  0  0  0  0
  3  4  2  0  0  0  0
  3 30  1  0  0  0  0
  4  5  1  0  0  0  0
  4  6  1  0  0  0  0
  5 31  1  0  0  0  0
  5 32  1  0  0  0  0
  5 33  1  0  0  0  0
  6  7  2  0  0  0  0
  7  8  1  0  0  0  0
  7 26  1  0  0  0  0
  8  9  1  0  0  0  0
  9 10  1  0  0  0  0
  9 34  1  0  0  0  0
  9 35  1  0  0  0  0
 10 11  2  0  0  0  0
 10 12  1  0  0  0  0
 12 13  1  0  0  0  0
 13 14  1  1  0  0  0
 13 21  1  0  0  0  0
 13 15  1  0  0  0  0
 15 16  1  0  0  0  0
 15 36  1  0  0  0  0
 15 37  1  0  0  0  0
 16 17  1  6  0  0  0
 16 18  1  0  0  0  0
 16 19  1  0  0  0  0
 18 38  1  0  0  0  0
 18 39  1  0  0  0  0
 18 40  1  0  0  0  0
 19 20  1  0  0  0  0
 19 41  1  0  0  0  0
 19 42  1  0  0  0  0
 20 21  1  0  0  0  0
 20 43  1  0  0  0  0
 20 44  1  0  0  0  0
 21 22  1  6  0  0  0
 21 23  1  0  0  0  0
 23 24  1  0  0  0  0
 23 25  1  0  0  0  0
 23 45  1  0  0  0  0
 24 46  1  0  0  0  0
 24 47  1  0  0  0  0
 24 48  1  0  0  0  0
 25 49  1  0  0  0  0
 25 50  1  0  0  0  0
 25 51  1  0  0  0  0
M  END
$$$$
