ZINC000000038332      none
 OpenBabel11202420153D

 30 32  0  0  0  0  0  0  0  0999 V2000
   32.3605   35.1065   59.0195 O   0  0  0  0  0  0  0  0  0  0  0  0
   32.2126   36.2597   59.3799 C   0  0  0  0  0  0  0  0  0  0  0  0
   32.6878   37.3834   58.5591 C   0  0  0  0  0  0  0  0  0  0  0  0
   33.3267   37.1851   57.3368 C   0  0  0  0  0  0  0  0  0  0  0  0
   33.7515   38.2746   56.6084 C   0  0  0  0  0  0  0  0  0  0  0  0
   33.5484   39.5640   57.0826 C   0  0  0  0  0  0  0  0  0  0  0  0
   32.9193   39.7815   58.2876 C   0  0  0  0  0  0  0  0  0  0  0  0
   32.4792   38.6935   59.0442 C   0  0  0  0  0  0  0  0  0  0  0  0
   31.8546   38.8619   60.2365 N   0  0  0  0  0  0  0  0  0  0  0  0
   31.4409   37.8500   60.9372 C   0  0  0  0  0  0  0  0  0  0  0  0
   31.6037   36.5577   60.5513 N   0  0  0  0  0  0  0  0  0  0  0  0
   31.1103   35.4767   61.4083 C   0  0  0  0  0  0  0  0  0  0  0  0
   31.5013   35.7505   62.8376 C   0  0  0  0  0  0  0  0  0  0  0  0
   30.5762   35.5818   63.8511 C   0  0  0  0  0  0  0  0  0  0  0  0
   30.9338   35.8318   65.1624 C   0  0  0  0  0  0  0  0  0  0  0  0
   32.2189   36.2519   65.4609 C   0  0  0  0  0  0  0  0  0  0  0  0
   32.5694   36.4970   66.7425 F   0  0  0  0  0  0  0  0  0  0  0  0
   33.1427   36.4260   64.4445 C   0  0  0  0  0  0  0  0  0  0  0  0
   32.7846   36.1700   63.1345 C   0  0  0  0  0  0  0  0  0  0  0  0
   33.4873   36.1847   56.9630 H   0  0  0  0  0  0  0  0  0  0  0  0
   34.2470   38.1245   55.6605 H   0  0  0  0  0  0  0  0  0  0  0  0
   33.8885   40.4066   56.4988 H   0  0  0  0  0  0  0  0  0  0  0  0
   32.7671   40.7888   58.6462 H   0  0  0  0  0  0  0  0  0  0  0  0
   30.9459   38.0457   61.8769 H   0  0  0  0  0  0  0  0  0  0  0  0
   31.5463   34.5307   61.0872 H   0  0  0  0  0  0  0  0  0  0  0  0
   30.0243   35.4203   61.3330 H   0  0  0  0  0  0  0  0  0  0  0  0
   29.5738   35.2542   63.6180 H   0  0  0  0  0  0  0  0  0  0  0  0
   30.2110   35.6999   65.9540 H   0  0  0  0  0  0  0  0  0  0  0  0
   34.1442   36.7579   64.6757 H   0  0  0  0  0  0  0  0  0  0  0  0
   33.5063   36.3014   62.3420 H   0  0  0  0  0  0  0  0  0  0  0  0
  1  2  2  0  0  0  0
  2 11  1  0  0  0  0
  2  3  1  0  0  0  0
  3  8  2  0  0  0  0
  3  4  1  0  0  0  0
  4  5  2  0  0  0  0
  4 20  1  0  0  0  0
  5  6  1  0  0  0  0
  5 21  1  0  0  0  0
  6  7  2  0  0  0  0
  6 22  1  0  0  0  0
  7  8  1  0  0  0  0
  7 23  1  0  0  0  0
  8  9  1  0  0  0  0
  9 10  2  0  0  0  0
 10 11  1  0  0  0  0
 10 24  1  0  0  0  0
 11 12  1  0  0  0  0
 12 13  1  0  0  0  0
 12 25  1  0  0  0  0
 12 26  1  0  0  0  0
 13 19  2  0  0  0  0
 13 14  1  0  0  0  0
 14 15  2  0  0  0  0
 14 27  1  0  0  0  0
 15 16  1  0  0  0  0
 15 28  1  0  0  0  0
 16 17  1  0  0  0  0
 16 18  2  0  0  0  0
 18 19  1  0  0  0  0
 18 29  1  0  0  0  0
 19 30  1  0  0  0  0
M  END
$$$$
