ZINC000000028524      none
 OpenBabel11202420163D

 36 37  0  0  0  0  0  0  0  0999 V2000
   32.0475   36.5199   67.8321 C   0  0  0  0  0  0  0  0  0  0  0  0
   31.0177   36.6655   66.7424 C   0  0  0  0  0  0  0  0  0  0  0  0
   29.8863   37.0073   67.0184 O   0  0  0  0  0  0  0  0  0  0  0  0
   31.3820   36.3930   65.3463 C   0  0  0  0  0  0  0  0  0  0  0  0
   31.8720   37.4233   64.5344 C   0  0  0  0  0  0  0  0  0  0  0  0
   32.2101   37.1653   63.2364 C   0  0  0  0  0  0  0  0  0  0  0  0
   32.0672   35.8802   62.7198 C   0  0  0  0  0  0  0  0  0  0  0  0
   32.4126   35.6218   61.3960 N   0  0  0  0  0  0  0  0  0  0  0  0
   31.7893   36.2771   60.3968 C   0  0  0  0  0  0  0  0  0  0  0  0
   30.9253   37.0940   60.6512 O   0  0  0  0  0  0  0  0  0  0  0  0
   32.1552   36.0034   58.9945 C   0  0  0  0  0  0  0  0  0  0  0  0
   32.6475   37.0457   58.1675 C   0  0  0  0  0  0  0  0  0  0  0  0
   32.8035   38.4439   58.7078 C   0  0  0  0  0  0  0  0  0  0  0  0
   32.9815   36.7605   56.8809 C   0  0  0  0  0  0  0  0  0  0  0  0
   32.8258   35.4447   56.4030 C   0  0  0  0  0  0  0  0  0  0  0  0
   33.1229   35.1806   55.2510 O   0  0  0  0  0  0  0  0  0  0  0  0
   32.3518   34.4786   57.2076 O   0  0  0  0  0  0  0  0  0  0  0  0
   32.0168   34.7360   58.4764 C   0  0  0  0  0  0  0  0  0  0  0  0
   31.4889   33.6264   59.3489 C   0  0  0  0  0  0  0  0  0  0  0  0
   31.5744   34.8539   63.5213 C   0  0  0  0  0  0  0  0  0  0  0  0
   31.2395   35.1015   64.8224 C   0  0  0  0  0  0  0  0  0  0  0  0
   32.8783   37.1988   67.6393 H   0  0  0  0  0  0  0  0  0  0  0  0
   31.5958   36.7624   68.7939 H   0  0  0  0  0  0  0  0  0  0  0  0
   32.4140   35.4935   67.8509 H   0  0  0  0  0  0  0  0  0  0  0  0
   31.9826   38.4206   64.9341 H   0  0  0  0  0  0  0  0  0  0  0  0
   32.5887   37.9593   62.6097 H   0  0  0  0  0  0  0  0  0  0  0  0
   33.1019   34.9704   61.1930 H   0  0  0  0  0  0  0  0  0  0  0  0
   31.8829   39.0030   58.5401 H   0  0  0  0  0  0  0  0  0  0  0  0
   33.6284   38.9408   58.1973 H   0  0  0  0  0  0  0  0  0  0  0  0
   33.0118   38.3991   59.7768 H   0  0  0  0  0  0  0  0  0  0  0  0
   33.3621   37.5351   56.2316 H   0  0  0  0  0  0  0  0  0  0  0  0
   31.4527   32.6998   58.7761 H   0  0  0  0  0  0  0  0  0  0  0  0
   32.1461   33.4966   60.2088 H   0  0  0  0  0  0  0  0  0  0  0  0
   30.4863   33.8804   59.6928 H   0  0  0  0  0  0  0  0  0  0  0  0
   31.4610   33.8596   63.1152 H   0  0  0  0  0  0  0  0  0  0  0  0
   30.8614   34.3039   65.4446 H   0  0  0  0  0  0  0  0  0  0  0  0
  1  2  1  0  0  0  0
  1 22  1  0  0  0  0
  1 23  1  0  0  0  0
  1 24  1  0  0  0  0
  2  3  2  0  0  0  0
  2  4  1  0  0  0  0
  4 21  2  0  0  0  0
  4  5  1  0  0  0  0
  5  6  2  0  0  0  0
  5 25  1  0  0  0  0
  6  7  1  0  0  0  0
  6 26  1  0  0  0  0
  7  8  1  0  0  0  0
  7 20  2  0  0  0  0
  8  9  1  0  0  0  0
  8 27  1  0  0  0  0
  9 10  2  0  0  0  0
  9 11  1  0  0  0  0
 11 18  2  0  0  0  0
 11 12  1  0  0  0  0
 12 13  1  0  0  0  0
 12 14  2  0  0  0  0
 13 28  1  0  0  0  0
 13 29  1  0  0  0  0
 13 30  1  0  0  0  0
 14 15  1  0  0  0  0
 14 31  1  0  0  0  0
 15 16  2  0  0  0  0
 15 17  1  0  0  0  0
 17 18  1  0  0  0  0
 18 19  1  0  0  0  0
 19 32  1  0  0  0  0
 19 33  1  0  0  0  0
 19 34  1  0  0  0  0
 20 21  1  0  0  0  0
 20 35  1  0  0  0  0
 21 36  1  0  0  0  0
M  END
$$$$
