ZINC000000050844      none
 OpenBabel11202420153D

 30 32  0  0  0  0  0  0  0  0999 V2000
   32.1086   35.3572   69.0927 C   0  0  0  0  0  0  0  0  0  0  0  0
   31.8611   35.5888   67.6243 C   0  0  0  0  0  0  0  0  0  0  0  0
   32.7495   36.0451   66.8015 N   0  0  0  0  0  0  0  0  0  0  0  0
   32.1994   36.1339   65.5518 C   0  0  0  0  0  0  0  0  0  0  0  0
   32.8145   36.5739   64.3940 C   0  0  0  0  0  0  0  0  0  0  0  0
   32.0608   36.7278   63.2078 C   0  0  0  0  0  0  0  0  0  0  0  0
   31.4332   37.9460   62.9094 C   0  0  0  0  0  0  0  0  0  0  0  0
   31.5475   38.9911   63.7648 O   0  0  0  0  0  0  0  0  0  0  0  0
   30.6877   38.0853   61.7402 C   0  0  0  0  0  0  0  0  0  0  0  0
   30.5506   37.0656   60.8517 C   0  0  0  0  0  0  0  0  0  0  0  0
   31.1528   35.8157   61.0869 C   0  0  0  0  0  0  0  0  0  0  0  0
   31.0109   34.7563   60.1752 C   0  0  0  0  0  0  0  0  0  0  0  0
   31.6068   33.5589   60.4351 C   0  0  0  0  0  0  0  0  0  0  0  0
   32.3568   33.3683   61.5919 C   0  0  0  0  0  0  0  0  0  0  0  0
   32.5152   34.3768   62.4975 C   0  0  0  0  0  0  0  0  0  0  0  0
   31.9167   35.6179   62.2618 C   0  0  0  0  0  0  0  0  0  0  0  0
   30.8137   35.6680   65.7035 C   0  0  0  0  0  0  0  0  0  0  0  0
   29.9610   35.5865   64.8382 O   0  0  0  0  0  0  0  0  0  0  0  0
   30.6915   35.3466   67.0098 O   0  0  0  0  0  0  0  0  0  0  0  0
   31.8631   36.2614   69.6496 H   0  0  0  0  0  0  0  0  0  0  0  0
   31.4836   34.5349   69.4411 H   0  0  0  0  0  0  0  0  0  0  0  0
   33.1580   35.1076   69.2493 H   0  0  0  0  0  0  0  0  0  0  0  0
   33.8705   36.7999   64.3960 H   0  0  0  0  0  0  0  0  0  0  0  0
   32.0792   38.8005   64.5497 H   0  0  0  0  0  0  0  0  0  0  0  0
   30.2094   39.0309   61.5321 H   0  0  0  0  0  0  0  0  0  0  0  0
   29.9678   37.2156   59.9548 H   0  0  0  0  0  0  0  0  0  0  0  0
   30.4323   34.8903   59.2731 H   0  0  0  0  0  0  0  0  0  0  0  0
   31.4960   32.7459   59.7328 H   0  0  0  0  0  0  0  0  0  0  0  0
   32.8197   32.4099   61.7751 H   0  0  0  0  0  0  0  0  0  0  0  0
   33.1001   34.2170   63.3912 H   0  0  0  0  0  0  0  0  0  0  0  0
  1  2  1  0  0  0  0
  1 20  1  0  0  0  0
  1 21  1  0  0  0  0
  1 22  1  0  0  0  0
  2 19  1  0  0  0  0
  2  3  2  0  0  0  0
  3  4  1  0  0  0  0
  4  5  2  0  0  0  0
  4 17  1  0  0  0  0
  5  6  1  0  0  0  0
  5 23  1  0  0  0  0
  6 16  2  0  0  0  0
  6  7  1  0  0  0  0
  7  8  1  0  0  0  0
  7  9  2  0  0  0  0
  8 24  1  0  0  0  0
  9 10  1  0  0  0  0
  9 25  1  0  0  0  0
 10 11  2  0  0  0  0
 10 26  1  0  0  0  0
 11 16  1  0  0  0  0
 11 12  1  0  0  0  0
 12 13  2  0  0  0  0
 12 27  1  0  0  0  0
 13 14  1  0  0  0  0
 13 28  1  0  0  0  0
 14 15  2  0  0  0  0
 14 29  1  0  0  0  0
 15 16  1  0  0  0  0
 15 30  1  0  0  0  0
 17 18  2  0  0  0  0
 17 19  1  0  0  0  0
M  END
$$$$
