ZINC000000031551      none
 OpenBabel11202420163D

 29 30  0  0  0  0  0  0  0  0999 V2000
   33.8069   38.1205   55.2142 O   0  0  0  0  0  0  0  0  0  0  0  0
   34.1465   36.9564   55.2352 C   0  0  0  0  0  0  0  0  0  0  0  0
   34.9236   36.3771   54.0813 C   0  0  0  0  0  0  0  0  0  0  0  0
   33.9886   35.0046   53.3511 S   0  0  0  0  0  0  0  0  0  0  0  0
   34.5577   33.6082   54.2627 C   0  0  0  0  0  0  0  0  0  0  0  0
   34.5893   32.3552   53.6571 C   0  0  0  0  0  0  0  0  0  0  0  0
   35.0380   31.2682   54.3843 C   0  0  0  0  0  0  0  0  0  0  0  0
   35.4419   31.4703   55.6979 C   0  0  0  0  0  0  0  0  0  0  0  0
   35.3787   32.7392   56.2374 C   0  0  0  0  0  0  0  0  0  0  0  0
   34.9510   33.7598   55.5185 N   0  0  0  0  0  0  0  0  0  0  0  0
   33.8289   36.1808   56.2906 N   0  0  0  0  0  0  0  0  0  0  0  0
   33.1068   36.7190   57.3629 C   0  0  0  0  0  0  0  0  0  0  0  0
   32.2558   35.9098   58.1038 C   0  0  0  0  0  0  0  0  0  0  0  0
   31.5481   36.4416   59.1640 C   0  0  0  0  0  0  0  0  0  0  0  0
   31.6786   37.7831   59.4816 C   0  0  0  0  0  0  0  0  0  0  0  0
   30.9812   38.3025   60.5155 F   0  0  0  0  0  0  0  0  0  0  0  0
   32.5228   38.5929   58.7406 C   0  0  0  0  0  0  0  0  0  0  0  0
   33.2363   38.0639   57.6829 C   0  0  0  0  0  0  0  0  0  0  0  0
   35.8862   36.0114   54.4386 H   0  0  0  0  0  0  0  0  0  0  0  0
   35.0847   37.1483   53.3280 H   0  0  0  0  0  0  0  0  0  0  0  0
   34.2674   32.2337   52.6334 H   0  0  0  0  0  0  0  0  0  0  0  0
   35.0741   30.2841   53.9407 H   0  0  0  0  0  0  0  0  0  0  0  0
   35.7976   30.6420   56.2927 H   0  0  0  0  0  0  0  0  0  0  0  0
   35.6875   32.8997   57.2598 H   0  0  0  0  0  0  0  0  0  0  0  0
   34.1004   35.2497   56.3075 H   0  0  0  0  0  0  0  0  0  0  0  0
   32.1504   34.8644   57.8539 H   0  0  0  0  0  0  0  0  0  0  0  0
   30.8889   35.8117   59.7429 H   0  0  0  0  0  0  0  0  0  0  0  0
   32.6230   39.6390   58.9897 H   0  0  0  0  0  0  0  0  0  0  0  0
   33.8943   38.6959   57.1050 H   0  0  0  0  0  0  0  0  0  0  0  0
  1  2  2  0  0  0  0
  2  3  1  0  0  0  0
  2 11  1  0  0  0  0
  3  4  1  0  0  0  0
  3 19  1  0  0  0  0
  3 20  1  0  0  0  0
  4  5  1  0  0  0  0
  5 10  2  0  0  0  0
  5  6  1  0  0  0  0
  6  7  2  0  0  0  0
  6 21  1  0  0  0  0
  7  8  1  0  0  0  0
  7 22  1  0  0  0  0
  8  9  2  0  0  0  0
  8 23  1  0  0  0  0
  9 10  1  0  0  0  0
  9 24  1  0  0  0  0
 11 12  1  0  0  0  0
 11 25  1  0  0  0  0
 12 18  2  0  0  0  0
 12 13  1  0  0  0  0
 13 14  2  0  0  0  0
 13 26  1  0  0  0  0
 14 15  1  0  0  0  0
 14 27  1  0  0  0  0
 15 16  1  0  0  0  0
 15 17  2  0  0  0  0
 17 18  1  0  0  0  0
 17 28  1  0  0  0  0
 18 29  1  0  0  0  0
M  END
$$$$
