ZINC000000000985      none
 OpenBabel11202420153D

 25 26  0  0  0  0  0  0  0  0999 V2000
   32.7510   38.6193   58.9131 C   0  0  0  0  0  0  0  0  0  0  0  0
   32.7029   37.2375   58.4287 N   0  0  0  0  0  0  0  0  0  0  0  0
   33.0742   36.8451   57.1656 C   0  0  0  0  0  0  0  0  0  0  0  0
   33.5149   37.6525   56.2444 N   0  0  0  0  0  0  0  0  0  0  0  0
   32.9144   35.4900   56.9988 N   0  0  0  0  0  0  0  0  0  0  0  0
   33.1875   34.7516   55.8427 C   0  0  0  0  0  0  0  0  0  0  0  0
   33.5892   33.4259   55.9424 C   0  0  0  0  0  0  0  0  0  0  0  0
   33.8535   32.6981   54.7986 C   0  0  0  0  0  0  0  0  0  0  0  0
   33.7287   33.2913   53.5557 C   0  0  0  0  0  0  0  0  0  0  0  0
   33.3341   34.6126   53.4532 C   0  0  0  0  0  0  0  0  0  0  0  0
   33.0631   35.3443   54.5928 C   0  0  0  0  0  0  0  0  0  0  0  0
   32.4024   34.9677   58.2762 C   0  0  0  0  0  0  0  0  0  0  0  0
   32.2884   36.1885   59.1638 C   0  0  0  0  0  0  0  0  0  0  0  0
   31.9000   36.2162   60.3120 O   0  0  0  0  0  0  0  0  0  0  0  0
   31.8008   39.1108   58.7041 H   0  0  0  0  0  0  0  0  0  0  0  0
   32.9326   38.6214   59.9878 H   0  0  0  0  0  0  0  0  0  0  0  0
   33.5554   39.1537   58.4077 H   0  0  0  0  0  0  0  0  0  0  0  0
   33.5990   38.6009   56.4304 H   0  0  0  0  0  0  0  0  0  0  0  0
   33.6911   32.9632   56.9129 H   0  0  0  0  0  0  0  0  0  0  0  0
   34.1623   31.6661   54.8753 H   0  0  0  0  0  0  0  0  0  0  0  0
   33.9403   32.7214   52.6630 H   0  0  0  0  0  0  0  0  0  0  0  0
   33.2379   35.0730   52.4812 H   0  0  0  0  0  0  0  0  0  0  0  0
   32.7553   36.3764   54.5122 H   0  0  0  0  0  0  0  0  0  0  0  0
   33.1007   34.2490   58.7051 H   0  0  0  0  0  0  0  0  0  0  0  0
   31.4243   34.5082   58.1331 H   0  0  0  0  0  0  0  0  0  0  0  0
  1  2  1  0  0  0  0
  1 15  1  0  0  0  0
  1 16  1  0  0  0  0
  1 17  1  0  0  0  0
  2 13  1  0  0  0  0
  2  3  1  0  0  0  0
  3  4  2  0  0  0  0
  3  5  1  0  0  0  0
  4 18  1  0  0  0  0
  5  6  1  0  0  0  0
  5 12  1  0  0  0  0
  6 11  2  0  0  0  0
  6  7  1  0  0  0  0
  7  8  2  0  0  0  0
  7 19  1  0  0  0  0
  8  9  1  0  0  0  0
  8 20  1  0  0  0  0
  9 10  2  0  0  0  0
  9 21  1  0  0  0  0
 10 11  1  0  0  0  0
 10 22  1  0  0  0  0
 11 23  1  0  0  0  0
 12 13  1  0  0  0  0
 12 24  1  0  0  0  0
 12 25  1  0  0  0  0
 13 14  2  0  0  0  0
M  END
$$$$
