ZINC000000038396      none
 OpenBabel11202420153D

 39 40  0  0  0  0  0  0  0  0999 V2000
   32.6299   35.8146   52.2867 C   0  0  0  0  0  0  0  0  0  0  0  0
   33.0694   34.9452   53.4366 C   0  0  0  0  0  0  0  0  0  0  0  0
   33.5099   33.6561   53.1989 C   0  0  0  0  0  0  0  0  0  0  0  0
   33.9191   32.8580   54.2510 C   0  0  0  0  0  0  0  0  0  0  0  0
   33.8781   33.3429   55.5441 C   0  0  0  0  0  0  0  0  0  0  0  0
   33.4314   34.6336   55.7856 C   0  0  0  0  0  0  0  0  0  0  0  0
   33.3897   35.1128   57.0567 O   0  0  0  0  0  0  0  0  0  0  0  0
   33.1655   34.1633   58.1010 C   0  0  0  0  0  0  0  0  0  0  0  0
   32.4419   34.8321   59.2411 C   0  0  0  0  0  0  0  0  0  0  0  0
   32.1543   34.1963   60.2330 O   0  0  0  0  0  0  0  0  0  0  0  0
   32.1144   36.1368   59.1586 N   0  0  0  0  0  0  0  0  0  0  0  0
   31.4107   36.7870   60.2669 C   0  0  0  0  0  0  0  0  0  0  0  0
   32.2638   36.6997   61.5340 C   0  0  0  0  0  0  0  0  0  0  0  0
   31.5289   37.3787   62.6914 C   0  0  0  0  0  0  0  0  0  0  0  0
   30.1907   36.6760   62.9281 C   0  0  0  0  0  0  0  0  0  0  0  0
   29.3376   36.7634   61.6611 C   0  0  0  0  0  0  0  0  0  0  0  0
   30.0725   36.0843   60.5036 C   0  0  0  0  0  0  0  0  0  0  0  0
   33.0266   35.4347   54.7274 C   0  0  0  0  0  0  0  0  0  0  0  0
   33.4843   36.3757   51.9082 H   0  0  0  0  0  0  0  0  0  0  0  0
   32.2254   35.1884   51.4916 H   0  0  0  0  0  0  0  0  0  0  0  0
   31.8622   36.5087   52.6288 H   0  0  0  0  0  0  0  0  0  0  0  0
   33.5382   33.2737   52.1893 H   0  0  0  0  0  0  0  0  0  0  0  0
   34.2667   31.8530   54.0624 H   0  0  0  0  0  0  0  0  0  0  0  0
   34.1941   32.7177   56.3660 H   0  0  0  0  0  0  0  0  0  0  0  0
   32.5612   33.3402   57.7198 H   0  0  0  0  0  0  0  0  0  0  0  0
   34.1225   33.7786   58.4537 H   0  0  0  0  0  0  0  0  0  0  0  0
   32.3444   36.6454   58.3653 H   0  0  0  0  0  0  0  0  0  0  0  0
   31.2329   37.8337   60.0201 H   0  0  0  0  0  0  0  0  0  0  0  0
   32.4417   35.6530   61.7807 H   0  0  0  0  0  0  0  0  0  0  0  0
   33.2173   37.2003   61.3653 H   0  0  0  0  0  0  0  0  0  0  0  0
   31.3510   38.4254   62.4447 H   0  0  0  0  0  0  0  0  0  0  0  0
   32.1367   37.3164   63.5941 H   0  0  0  0  0  0  0  0  0  0  0  0
   29.6671   37.1598   63.7528 H   0  0  0  0  0  0  0  0  0  0  0  0
   30.3685   35.6293   63.1749 H   0  0  0  0  0  0  0  0  0  0  0  0
   29.1597   37.8101   61.4144 H   0  0  0  0  0  0  0  0  0  0  0  0
   28.3841   36.2628   61.8298 H   0  0  0  0  0  0  0  0  0  0  0  0
   29.4647   36.1466   59.6010 H   0  0  0  0  0  0  0  0  0  0  0  0
   30.2503   35.0377   60.7504 H   0  0  0  0  0  0  0  0  0  0  0  0
   32.6785   36.4401   54.9129 H   0  0  0  0  0  0  0  0  0  0  0  0
  1  2  1  0  0  0  0
  1 19  1  0  0  0  0
  1 20  1  0  0  0  0
  1 21  1  0  0  0  0
  2 18  2  0  0  0  0
  2  3  1  0  0  0  0
  3  4  2  0  0  0  0
  3 22  1  0  0  0  0
  4  5  1  0  0  0  0
  4 23  1  0  0  0  0
  5  6  2  0  0  0  0
  5 24  1  0  0  0  0
  6  7  1  0  0  0  0
  6 18  1  0  0  0  0
  7  8  1  0  0  0  0
  8  9  1  0  0  0  0
  8 25  1  0  0  0  0
  8 26  1  0  0  0  0
  9 10  2  0  0  0  0
  9 11  1  0  0  0  0
 11 12  1  0  0  0  0
 11 27  1  0  0  0  0
 12 17  1  0  0  0  0
 12 13  1  0  0  0  0
 12 28  1  0  0  0  0
 13 14  1  0  0  0  0
 13 29  1  0  0  0  0
 13 30  1  0  0  0  0
 14 15  1  0  0  0  0
 14 31  1  0  0  0  0
 14 32  1  0  0  0  0
 15 16  1  0  0  0  0
 15 33  1  0  0  0  0
 15 34  1  0  0  0  0
 16 17  1  0  0  0  0
 16 35  1  0  0  0  0
 16 36  1  0  0  0  0
 17 37  1  0  0  0  0
 17 38  1  0  0  0  0
 18 39  1  0  0  0  0
M  END
$$$$
