ZINC000000034395      none
 OpenBabel11202420153D

 34 35  0  0  0  0  0  0  0  0999 V2000
   35.1098   31.5411   54.7363 C   0  0  0  0  0  0  0  0  0  0  0  0
   34.2188   32.7454   54.4254 C   0  0  0  0  0  0  0  0  0  0  0  0
   33.9630   33.4866   55.6475 O   0  0  0  0  0  0  0  0  0  0  0  0
   33.1880   34.5851   55.5463 C   0  0  0  0  0  0  0  0  0  0  0  0
   32.7383   34.9144   54.4657 O   0  0  0  0  0  0  0  0  0  0  0  0
   32.8869   35.3841   56.7411 C   0  0  0  0  0  0  0  0  0  0  0  0
   33.2310   36.7144   56.8618 C   0  0  0  0  0  0  0  0  0  0  0  0
   33.8910   37.4490   55.8905 N   0  0  0  0  0  0  0  0  0  0  0  0
   34.7894   36.9520   54.9863 C   0  0  0  0  0  0  0  0  0  0  0  0
   35.2107   37.9691   54.2096 C   0  0  0  0  0  0  0  0  0  0  0  0
   34.5582   39.1393   54.6513 C   0  0  0  0  0  0  0  0  0  0  0  0
   33.7578   38.7941   55.6788 C   0  0  0  0  0  0  0  0  0  0  0  0
   32.7314   37.3298   58.3719 S   0  0  0  0  0  0  0  0  0  0  0  0
   32.0521   35.7811   58.8470 C   0  0  0  0  0  0  0  0  0  0  0  0
   31.4156   35.5192   60.0789 C   0  0  0  0  0  0  0  0  0  0  0  0
   30.1844   36.2947   60.4709 C   0  0  0  0  0  0  0  0  0  0  0  0
   31.8603   34.6687   60.8234 O   0  0  0  0  0  0  0  0  0  0  0  0
   32.2312   34.8692   57.8484 C   0  0  0  0  0  0  0  0  0  0  0  0
   31.7607   33.4403   57.9398 C   0  0  0  0  0  0  0  0  0  0  0  0
   35.3018   30.9847   53.8188 H   0  0  0  0  0  0  0  0  0  0  0  0
   36.0545   31.8868   55.1559 H   0  0  0  0  0  0  0  0  0  0  0  0
   34.6078   30.8939   55.4555 H   0  0  0  0  0  0  0  0  0  0  0  0
   33.2741   32.3997   54.0056 H   0  0  0  0  0  0  0  0  0  0  0  0
   34.7207   33.3927   53.7062 H   0  0  0  0  0  0  0  0  0  0  0  0
   35.1046   35.9220   54.9073 H   0  0  0  0  0  0  0  0  0  0  0  0
   35.9214   37.9017   53.3992 H   0  0  0  0  0  0  0  0  0  0  0  0
   34.6785   40.1310   54.2409 H   0  0  0  0  0  0  0  0  0  0  0  0
   33.1216   39.4636   56.2387 H   0  0  0  0  0  0  0  0  0  0  0  0
   29.4015   36.1321   59.7301 H   0  0  0  0  0  0  0  0  0  0  0  0
   29.8371   35.9562   61.4470 H   0  0  0  0  0  0  0  0  0  0  0  0
   30.4241   37.3571   60.5188 H   0  0  0  0  0  0  0  0  0  0  0  0
   30.7444   33.3669   57.5528 H   0  0  0  0  0  0  0  0  0  0  0  0
   32.4205   32.8023   57.3517 H   0  0  0  0  0  0  0  0  0  0  0  0
   31.7773   33.1183   58.9810 H   0  0  0  0  0  0  0  0  0  0  0  0
  1  2  1  0  0  0  0
  1 20  1  0  0  0  0
  1 21  1  0  0  0  0
  1 22  1  0  0  0  0
  2  3  1  0  0  0  0
  2 23  1  0  0  0  0
  2 24  1  0  0  0  0
  3  4  1  0  0  0  0
  4  5  2  0  0  0  0
  4  6  1  0  0  0  0
  6 18  1  0  0  0  0
  6  7  2  0  0  0  0
  7  8  1  0  0  0  0
  7 13  1  0  0  0  0
  8 12  1  0  0  0  0
  8  9  1  0  0  0  0
  9 10  2  0  0  0  0
  9 25  1  0  0  0  0
 10 11  1  0  0  0  0
 10 26  1  0  0  0  0
 11 12  2  0  0  0  0
 11 27  1  0  0  0  0
 12 28  1  0  0  0  0
 13 14  1  0  0  0  0
 14 15  1  0  0  0  0
 14 18  2  0  0  0  0
 15 16  1  0  0  0  0
 15 17  2  0  0  0  0
 16 29  1  0  0  0  0
 16 30  1  0  0  0  0
 16 31  1  0  0  0  0
 18 19  1  0  0  0  0
 19 32  1  0  0  0  0
 19 33  1  0  0  0  0
 19 34  1  0  0  0  0
M  END
$$$$
