ZINC000000029651      none
 OpenBabel11202420163D

 38 39  0  0  0  0  0  0  0  0999 V2000
   34.7267   32.0657   54.1079 C   0  0  0  0  0  0  0  0  0  0  0  0
   34.7048   31.8780   55.6262 C   0  0  0  0  0  0  0  0  0  0  0  0
   35.0417   33.1331   56.2738 O   0  0  0  0  0  0  0  0  0  0  0  0
   34.0216   33.9634   56.5671 C   0  0  0  0  0  0  0  0  0  0  0  0
   33.1331   33.5954   57.3099 O   0  0  0  0  0  0  0  0  0  0  0  0
   33.9834   35.3176   55.9869 C   0  0  0  0  0  0  0  0  0  0  0  0
   34.5497   35.5613   54.7328 C   0  0  0  0  0  0  0  0  0  0  0  0
   34.5165   36.8310   54.1989 C   0  0  0  0  0  0  0  0  0  0  0  0
   33.9179   37.8683   54.8964 C   0  0  0  0  0  0  0  0  0  0  0  0
   33.3483   37.6419   56.1328 C   0  0  0  0  0  0  0  0  0  0  0  0
   33.3726   36.3690   56.6877 C   0  0  0  0  0  0  0  0  0  0  0  0
   32.7993   36.1385   57.9345 N   0  0  0  0  0  0  0  0  0  0  0  0
   32.7638   37.1246   58.8526 C   0  0  0  0  0  0  0  0  0  0  0  0
   33.2326   38.2153   58.5916 O   0  0  0  0  0  0  0  0  0  0  0  0
   32.1548   36.8799   60.1769 C   0  0  0  0  0  0  0  0  0  0  0  0
   32.1289   35.5893   60.7091 C   0  0  0  0  0  0  0  0  0  0  0  0
   31.5541   35.3670   61.9430 C   0  0  0  0  0  0  0  0  0  0  0  0
   31.0138   36.4213   62.6582 C   0  0  0  0  0  0  0  0  0  0  0  0
   31.0411   37.7034   62.1392 C   0  0  0  0  0  0  0  0  0  0  0  0
   30.4508   38.8454   62.9254 C   0  0  0  0  0  0  0  0  0  0  0  0
   31.6081   37.9388   60.9035 C   0  0  0  0  0  0  0  0  0  0  0  0
   33.9998   32.8271   53.8253 H   0  0  0  0  0  0  0  0  0  0  0  0
   35.7224   32.3801   53.7950 H   0  0  0  0  0  0  0  0  0  0  0  0
   34.4738   31.1235   53.6216 H   0  0  0  0  0  0  0  0  0  0  0  0
   35.4317   31.1167   55.9087 H   0  0  0  0  0  0  0  0  0  0  0  0
   33.7090   31.5636   55.9390 H   0  0  0  0  0  0  0  0  0  0  0  0
   35.0174   34.7567   54.1850 H   0  0  0  0  0  0  0  0  0  0  0  0
   34.9591   37.0189   53.2318 H   0  0  0  0  0  0  0  0  0  0  0  0
   33.8968   38.8601   54.4694 H   0  0  0  0  0  0  0  0  0  0  0  0
   32.8835   38.4555   56.6697 H   0  0  0  0  0  0  0  0  0  0  0  0
   32.4252   35.2682   58.1429 H   0  0  0  0  0  0  0  0  0  0  0  0
   32.5542   34.7663   60.1539 H   0  0  0  0  0  0  0  0  0  0  0  0
   31.5295   34.3684   62.3538 H   0  0  0  0  0  0  0  0  0  0  0  0
   30.5685   36.2423   63.6257 H   0  0  0  0  0  0  0  0  0  0  0  0
   31.2189   39.2828   63.5632 H   0  0  0  0  0  0  0  0  0  0  0  0
   30.0742   39.6031   62.2383 H   0  0  0  0  0  0  0  0  0  0  0  0
   29.6322   38.4764   63.5433 H   0  0  0  0  0  0  0  0  0  0  0  0
   31.6292   38.9402   60.4997 H   0  0  0  0  0  0  0  0  0  0  0  0
  1  2  1  0  0  0  0
  1 22  1  0  0  0  0
  1 23  1  0  0  0  0
  1 24  1  0  0  0  0
  2  3  1  0  0  0  0
  2 25  1  0  0  0  0
  2 26  1  0  0  0  0
  3  4  1  0  0  0  0
  4  5  2  0  0  0  0
  4  6  1  0  0  0  0
  6 11  2  0  0  0  0
  6  7  1  0  0  0  0
  7  8  2  0  0  0  0
  7 27  1  0  0  0  0
  8  9  1  0  0  0  0
  8 28  1  0  0  0  0
  9 10  2  0  0  0  0
  9 29  1  0  0  0  0
 10 11  1  0  0  0  0
 10 30  1  0  0  0  0
 11 12  1  0  0  0  0
 12 13  1  0  0  0  0
 12 31  1  0  0  0  0
 13 14  2  0  0  0  0
 13 15  1  0  0  0  0
 15 21  2  0  0  0  0
 15 16  1  0  0  0  0
 16 17  2  0  0  0  0
 16 32  1  0  0  0  0
 17 18  1  0  0  0  0
 17 33  1  0  0  0  0
 18 19  2  0  0  0  0
 18 34  1  0  0  0  0
 19 20  1  0  0  0  0
 19 21  1  0  0  0  0
 20 35  1  0  0  0  0
 20 36  1  0  0  0  0
 20 37  1  0  0  0  0
 21 38  1  0  0  0  0
M  END
$$$$
