ZINC000000050561      none
 OpenBabel11202420153D

 27 29  0  0  0  0  0  0  0  0999 V2000
   31.9414   35.4784   63.3113 C   0  0  0  0  0  0  0  0  0  0  0  0
   30.5929   35.8264   62.6778 C   0  0  0  0  0  0  0  0  0  0  0  0
   29.4840   35.0586   63.4000 C   0  0  0  0  0  0  0  0  0  0  0  0
   30.6082   35.4261   61.2036 C   0  0  0  0  0  0  0  0  0  0  0  0
   31.4298   36.3648   60.3636 C   0  0  0  0  0  0  0  0  0  0  0  0
   32.1047   35.8976   59.2537 C   0  0  0  0  0  0  0  0  0  0  0  0
   32.8000   36.7757   58.4423 C   0  0  0  0  0  0  0  0  0  0  0  0
   32.8298   38.1286   58.7303 C   0  0  0  0  0  0  0  0  0  0  0  0
   32.1731   38.6106   59.8468 C   0  0  0  0  0  0  0  0  0  0  0  0
   31.4848   37.7298   60.6688 C   0  0  0  0  0  0  0  0  0  0  0  0
   30.7893   38.1729   61.8934 C   0  0  0  0  0  0  0  0  0  0  0  0
   30.4495   39.3495   62.3301 N   0  0  0  0  0  0  0  0  0  0  0  0
   29.8125   39.2434   63.4471 N   0  0  0  0  0  0  0  0  0  0  0  0
   29.7104   38.0003   63.7946 N   0  0  0  0  0  0  0  0  0  0  0  0
   30.3530   37.2584   62.8087 N   0  0  0  0  0  0  0  0  0  0  0  0
   31.9281   35.7508   64.3667 H   0  0  0  0  0  0  0  0  0  0  0  0
   32.1229   34.4080   63.2146 H   0  0  0  0  0  0  0  0  0  0  0  0
   32.7340   36.0286   62.8041 H   0  0  0  0  0  0  0  0  0  0  0  0
   28.5204   35.3087   62.9562 H   0  0  0  0  0  0  0  0  0  0  0  0
   29.6614   33.9874   63.3035 H   0  0  0  0  0  0  0  0  0  0  0  0
   29.4802   35.3325   64.4550 H   0  0  0  0  0  0  0  0  0  0  0  0
   29.5847   35.4208   60.8286 H   0  0  0  0  0  0  0  0  0  0  0  0
   31.0209   34.4210   61.1163 H   0  0  0  0  0  0  0  0  0  0  0  0
   32.0893   34.8437   59.0180 H   0  0  0  0  0  0  0  0  0  0  0  0
   33.3245   36.4017   57.5755 H   0  0  0  0  0  0  0  0  0  0  0  0
   33.3658   38.8073   58.0834 H   0  0  0  0  0  0  0  0  0  0  0  0
   32.1949   39.6654   60.0774 H   0  0  0  0  0  0  0  0  0  0  0  0
  1  2  1  0  0  0  0
  1 16  1  0  0  0  0
  1 17  1  0  0  0  0
  1 18  1  0  0  0  0
  2 15  1  0  0  0  0
  2  3  1  0  0  0  0
  2  4  1  0  0  0  0
  3 19  1  0  0  0  0
  3 20  1  0  0  0  0
  3 21  1  0  0  0  0
  4  5  1  0  0  0  0
  4 22  1  0  0  0  0
  4 23  1  0  0  0  0
  5 10  2  0  0  0  0
  5  6  1  0  0  0  0
  6  7  2  0  0  0  0
  6 24  1  0  0  0  0
  7  8  1  0  0  0  0
  7 25  1  0  0  0  0
  8  9  2  0  0  0  0
  8 26  1  0  0  0  0
  9 10  1  0  0  0  0
  9 27  1  0  0  0  0
 10 11  1  0  0  0  0
 11 15  1  0  0  0  0
 11 12  2  0  0  0  0
 12 13  1  0  0  0  0
 13 14  2  0  0  0  0
 14 15  1  0  0  0  0
M  END
$$$$
