ZINC000000057301      none
 OpenBabel11202420153D

 36 37  0  0  1  0  0  0  0  0999 V2000
   31.8781   37.8268   60.1165 C   0  0  0  0  0  0  0  0  0  0  0  0
   31.1655   36.6813   60.8382 C   0  0  0  0  0  0  0  0  0  0  0  0
   30.1856   36.0009   59.8802 C   0  0  0  0  0  0  0  0  0  0  0  0
   32.1338   35.7241   61.2990 O   0  0  0  0  0  0  0  0  0  0  0  0
   32.3930   36.0928   62.6750 C   0  0  0  0  0  0  0  0  0  0  0  0
   30.9929   36.5608   63.1445 C   0  0  1  0  0  0  0  0  0  0  0  0
   30.3807   35.7086   63.4395 H   0  0  0  0  0  0  0  0  0  0  0  0
   31.1152   37.5608   64.2961 C   0  0  1  0  0  0  0  0  0  0  0  0
   31.6824   38.4356   63.9781 H   0  0  0  0  0  0  0  0  0  0  0  0
   29.8101   37.9523   64.7585 O   0  0  0  0  0  0  0  0  0  0  0  0
   29.6979   37.5185   66.1247 C   0  0  0  0  0  0  0  0  0  0  0  0
   28.8904   38.5348   66.9348 C   0  0  0  0  0  0  0  0  0  0  0  0
   29.0275   36.1447   66.1872 C   0  0  0  0  0  0  0  0  0  0  0  0
   31.0468   37.4378   66.6332 O   0  0  0  0  0  0  0  0  0  0  0  0
   31.7906   36.8950   65.5152 C   0  0  2  0  0  0  0  0  0  0  0  0
   31.6842   35.8111   65.4708 H   0  0  0  0  0  0  0  0  0  0  0  0
   33.2655   37.2929   65.6014 C   0  0  0  0  0  0  0  0  0  0  0  0
   33.7416   37.0713   66.9305 O   0  0  0  0  0  0  0  0  0  0  0  0
   30.4476   37.1983   61.9718 O   0  0  0  0  0  0  0  0  0  0  0  0
   32.4092   37.4351   59.2490 H   0  0  0  0  0  0  0  0  0  0  0  0
   31.1440   38.5638   59.7908 H   0  0  0  0  0  0  0  0  0  0  0  0
   32.5890   38.2977   60.7955 H   0  0  0  0  0  0  0  0  0  0  0  0
   29.6932   35.1736   60.3911 H   0  0  0  0  0  0  0  0  0  0  0  0
   29.4374   36.7226   59.5525 H   0  0  0  0  0  0  0  0  0  0  0  0
   30.7283   35.6216   59.0142 H   0  0  0  0  0  0  0  0  0  0  0  0
   33.1158   36.9067   62.7313 H   0  0  0  0  0  0  0  0  0  0  0  0
   32.7311   35.2327   63.2530 H   0  0  0  0  0  0  0  0  0  0  0  0
   27.8925   38.6300   66.5066 H   0  0  0  0  0  0  0  0  0  0  0  0
   28.8117   38.1960   67.9677 H   0  0  0  0  0  0  0  0  0  0  0  0
   29.3915   39.5023   66.9068 H   0  0  0  0  0  0  0  0  0  0  0  0
   29.6256   35.4229   65.6309 H   0  0  0  0  0  0  0  0  0  0  0  0
   28.9477   35.8262   67.2265 H   0  0  0  0  0  0  0  0  0  0  0  0
   28.0315   36.2061   65.7486 H   0  0  0  0  0  0  0  0  0  0  0  0
   33.8458   36.6907   64.9024 H   0  0  0  0  0  0  0  0  0  0  0  0
   33.3726   38.3476   65.3482 H   0  0  0  0  0  0  0  0  0  0  0  0
   33.2697   37.5764   67.6066 H   0  0  0  0  0  0  0  0  0  0  0  0
  1  2  1  0  0  0  0
  1 20  1  0  0  0  0
  1 21  1  0  0  0  0
  1 22  1  0  0  0  0
  2 19  1  0  0  0  0
  2  3  1  0  0  0  0
  2  4  1  0  0  0  0
  3 23  1  0  0  0  0
  3 24  1  0  0  0  0
  3 25  1  0  0  0  0
  4  5  1  0  0  0  0
  5  6  1  0  0  0  0
  5 26  1  0  0  0  0
  5 27  1  0  0  0  0
  6  7  1  1  0  0  0
  6  8  1  0  0  0  0
  6 19  1  0  0  0  0
  8  9  1  6  0  0  0
  8 15  1  0  0  0  0
  8 10  1  0  0  0  0
 10 11  1  0  0  0  0
 11 12  1  0  0  0  0
 11 13  1  0  0  0  0
 11 14  1  0  0  0  0
 12 28  1  0  0  0  0
 12 29  1  0  0  0  0
 12 30  1  0  0  0  0
 13 31  1  0  0  0  0
 13 32  1  0  0  0  0
 13 33  1  0  0  0  0
 14 15  1  0  0  0  0
 15 16  1  6  0  0  0
 15 17  1  0  0  0  0
 17 18  1  0  0  0  0
 17 34  1  0  0  0  0
 17 35  1  0  0  0  0
 18 36  1  0  0  0  0
M  END
$$$$
