ZINC000000030199      none
 OpenBabel11202420163D

 32 34  0  0  0  0  0  0  0  0999 V2000
   31.9570   38.4102   59.1671 O   0  0  0  0  0  0  0  0  0  0  0  0
   32.3765   37.4124   58.6133 C   0  0  0  0  0  0  0  0  0  0  0  0
   32.3701   36.2298   59.2599 N   0  0  0  0  0  0  0  0  0  0  0  0
   31.8578   36.1468   60.6299 C   0  0  0  0  0  0  0  0  0  0  0  0
   30.3913   36.6235   60.6754 C   0  0  0  0  0  0  0  0  0  0  0  0
   30.2809   37.3816   62.0225 C   0  0  0  0  0  0  0  0  0  0  0  0
   31.6470   38.1049   62.1214 C   0  0  0  0  0  0  0  0  0  0  0  0
   32.6558   37.0879   61.5491 C   0  0  0  0  0  0  0  0  0  0  0  0
   32.8873   37.4949   57.2309 C   0  0  0  0  0  0  0  0  0  0  0  0
   32.8351   36.3753   56.3971 C   0  0  0  0  0  0  0  0  0  0  0  0
   33.3064   36.4560   55.1050 C   0  0  0  0  0  0  0  0  0  0  0  0
   33.8456   37.6444   54.6307 C   0  0  0  0  0  0  0  0  0  0  0  0
   33.9060   38.7648   55.4605 C   0  0  0  0  0  0  0  0  0  0  0  0
   33.4291   38.6915   56.7548 C   0  0  0  0  0  0  0  0  0  0  0  0
   34.4732   39.7927   54.7634 O   0  0  0  0  0  0  0  0  0  0  0  0
   35.1307   39.1775   53.6398 C   0  0  0  0  0  0  0  0  0  0  0  0
   34.3741   37.9730   53.4175 O   0  0  0  0  0  0  0  0  0  0  0  0
   32.7048   35.4338   58.8182 H   0  0  0  0  0  0  0  0  0  0  0  0
   31.9285   35.1215   60.9931 H   0  0  0  0  0  0  0  0  0  0  0  0
   30.1821   37.2941   59.8421 H   0  0  0  0  0  0  0  0  0  0  0  0
   29.7123   35.7709   60.6600 H   0  0  0  0  0  0  0  0  0  0  0  0
   30.1531   36.6827   62.8491 H   0  0  0  0  0  0  0  0  0  0  0  0
   29.4632   38.1021   61.9978 H   0  0  0  0  0  0  0  0  0  0  0  0
   31.8833   38.3331   63.1607 H   0  0  0  0  0  0  0  0  0  0  0  0
   31.6427   39.0160   61.5231 H   0  0  0  0  0  0  0  0  0  0  0  0
   33.1133   36.5195   62.3589 H   0  0  0  0  0  0  0  0  0  0  0  0
   33.4249   37.6058   60.9761 H   0  0  0  0  0  0  0  0  0  0  0  0
   32.4210   35.4478   56.7639 H   0  0  0  0  0  0  0  0  0  0  0  0
   33.2608   35.5906   54.4605 H   0  0  0  0  0  0  0  0  0  0  0  0
   33.4756   39.5579   57.3980 H   0  0  0  0  0  0  0  0  0  0  0  0
   36.1658   38.9397   53.8852 H   0  0  0  0  0  0  0  0  0  0  0  0
   35.0827   39.8267   52.7657 H   0  0  0  0  0  0  0  0  0  0  0  0
  1  2  2  0  0  0  0
  2  3  1  0  0  0  0
  2  9  1  0  0  0  0
  3  4  1  0  0  0  0
  3 18  1  0  0  0  0
  4  8  1  0  0  0  0
  4  5  1  0  0  0  0
  4 19  1  0  0  0  0
  5  6  1  0  0  0  0
  5 20  1  0  0  0  0
  5 21  1  0  0  0  0
  6  7  1  0  0  0  0
  6 22  1  0  0  0  0
  6 23  1  0  0  0  0
  7  8  1  0  0  0  0
  7 24  1  0  0  0  0
  7 25  1  0  0  0  0
  8 26  1  0  0  0  0
  8 27  1  0  0  0  0
  9 14  2  0  0  0  0
  9 10  1  0  0  0  0
 10 11  2  0  0  0  0
 10 28  1  0  0  0  0
 11 12  1  0  0  0  0
 11 29  1  0  0  0  0
 12 17  1  0  0  0  0
 12 13  2  0  0  0  0
 13 14  1  0  0  0  0
 13 15  1  0  0  0  0
 14 30  1  0  0  0  0
 15 16  1  0  0  0  0
 16 17  1  0  0  0  0
 16 31  1  0  0  0  0
 16 32  1  0  0  0  0
M  END
$$$$
