ZINC000000013245      none
 OpenBabel11202420153D

 16 16  0  0  0  0  0  0  0  0999 V2000
   34.0936   38.0513   54.9686 O   0  0  0  0  0  0  0  0  0  0  0  0
   33.5121   37.2523   55.6721 C   0  0  0  0  0  0  0  0  0  0  0  0
   33.1134   37.6276   57.0349 C   0  0  0  0  0  0  0  0  0  0  0  0
   32.4416   36.7071   57.8484 C   0  0  0  0  0  0  0  0  0  0  0  0
   32.0737   37.0598   59.1274 C   0  0  0  0  0  0  0  0  0  0  0  0
   32.3569   38.3313   59.6099 C   0  0  0  0  0  0  0  0  0  0  0  0
   31.9865   38.6751   60.8699 O   0  0  0  0  0  0  0  0  0  0  0  0
   33.0259   39.2540   58.8057 C   0  0  0  0  0  0  0  0  0  0  0  0
   33.3063   40.4957   59.2845 O   0  0  0  0  0  0  0  0  0  0  0  0
   33.4036   38.9072   57.5242 C   0  0  0  0  0  0  0  0  0  0  0  0
   33.2877   36.2651   55.2964 H   0  0  0  0  0  0  0  0  0  0  0  0
   32.2162   35.7194   57.4744 H   0  0  0  0  0  0  0  0  0  0  0  0
   31.5595   36.3475   59.7556 H   0  0  0  0  0  0  0  0  0  0  0  0
   31.5328   37.9706   61.3525 H   0  0  0  0  0  0  0  0  0  0  0  0
   33.0033   40.6455   60.1906 H   0  0  0  0  0  0  0  0  0  0  0  0
   33.9212   39.6208   56.9004 H   0  0  0  0  0  0  0  0  0  0  0  0
  1  2  2  0  0  0  0
  2  3  1  0  0  0  0
  2 11  1  0  0  0  0
  3 10  2  0  0  0  0
  3  4  1  0  0  0  0
  4  5  2  0  0  0  0
  4 12  1  0  0  0  0
  5  6  1  0  0  0  0
  5 13  1  0  0  0  0
  6  7  1  0  0  0  0
  6  8  2  0  0  0  0
  7 14  1  0  0  0  0
  8  9  1  0  0  0  0
  8 10  1  0  0  0  0
  9 15  1  0  0  0  0
 10 16  1  0  0  0  0
M  END
$$$$
