ZINC000000055717      none
 OpenBabel11202420153D

 41 43  0  0  1  0  0  0  0  0999 V2000
   32.3834   34.6522   53.9049 C   0  0  0  0  0  0  0  0  0  0  0  0
   32.6442   34.7018   55.4117 C   0  0  0  0  0  0  0  0  0  0  0  0
   32.8348   36.0806   55.8247 O   0  0  0  0  0  0  0  0  0  0  0  0
   33.0765   36.2997   57.1322 C   0  0  0  0  0  0  0  0  0  0  0  0
   33.1266   35.3641   57.9060 O   0  0  0  0  0  0  0  0  0  0  0  0
   33.2801   37.6742   57.6238 C   0  0  0  0  0  0  0  0  0  0  0  0
   33.8424   38.6435   56.7888 C   0  0  0  0  0  0  0  0  0  0  0  0
   34.0255   39.9277   57.2528 C   0  0  0  0  0  0  0  0  0  0  0  0
   33.6646   40.2619   58.5484 C   0  0  0  0  0  0  0  0  0  0  0  0
   33.1131   39.3143   59.3866 C   0  0  0  0  0  0  0  0  0  0  0  0
   32.9159   38.0162   58.9351 C   0  0  0  0  0  0  0  0  0  0  0  0
   32.3591   37.0586   59.7791 N   0  0  0  0  0  0  0  0  0  0  0  0
   31.4876   37.4303   60.7377 C   0  0  0  0  0  0  0  0  0  0  0  0
   31.1884   38.5985   60.8652 O   0  0  0  0  0  0  0  0  0  0  0  0
   30.8852   36.3940   61.6510 C   0  0  2  0  0  0  0  0  0  0  0  0
   31.2673   35.4072   61.3900 H   0  0  0  0  0  0  0  0  0  0  0  0
   29.3566   36.4096   61.5145 C   0  0  0  0  0  0  0  0  0  0  0  0
   28.8172   35.4253   62.4034 O   0  0  0  0  0  0  0  0  0  0  0  0
   29.3137   35.4079   63.6706 C   0  0  0  0  0  0  0  0  0  0  0  0
   28.6098   34.7502   64.6686 C   0  0  0  0  0  0  0  0  0  0  0  0
   29.1023   34.7220   65.9594 C   0  0  0  0  0  0  0  0  0  0  0  0
   30.2976   35.3486   66.2598 C   0  0  0  0  0  0  0  0  0  0  0  0
   31.0033   36.0065   65.2703 C   0  0  0  0  0  0  0  0  0  0  0  0
   30.5140   36.0395   63.9729 C   0  0  0  0  0  0  0  0  0  0  0  0
   31.2169   36.6971   63.0103 O   0  0  0  0  0  0  0  0  0  0  0  0
   31.4880   35.2285   53.6720 H   0  0  0  0  0  0  0  0  0  0  0  0
   32.2403   33.6171   53.5947 H   0  0  0  0  0  0  0  0  0  0  0  0
   33.2363   35.0758   53.3744 H   0  0  0  0  0  0  0  0  0  0  0  0
   31.7915   34.2782   55.9421 H   0  0  0  0  0  0  0  0  0  0  0  0
   33.5397   34.1256   55.6446 H   0  0  0  0  0  0  0  0  0  0  0  0
   34.1293   38.3870   55.7796 H   0  0  0  0  0  0  0  0  0  0  0  0
   34.4560   40.6768   56.6048 H   0  0  0  0  0  0  0  0  0  0  0  0
   33.8164   41.2701   58.9045 H   0  0  0  0  0  0  0  0  0  0  0  0
   32.8349   39.5826   60.3952 H   0  0  0  0  0  0  0  0  0  0  0  0
   32.5985   36.1242   59.6771 H   0  0  0  0  0  0  0  0  0  0  0  0
   28.9738   37.3947   61.7809 H   0  0  0  0  0  0  0  0  0  0  0  0
   29.0767   36.1718   60.4882 H   0  0  0  0  0  0  0  0  0  0  0  0
   27.6759   34.2600   64.4366 H   0  0  0  0  0  0  0  0  0  0  0  0
   28.5525   34.2098   66.7351 H   0  0  0  0  0  0  0  0  0  0  0  0
   30.6801   35.3243   67.2695 H   0  0  0  0  0  0  0  0  0  0  0  0
   31.9367   36.4953   65.5075 H   0  0  0  0  0  0  0  0  0  0  0  0
  1  2  1  0  0  0  0
  1 26  1  0  0  0  0
  1 27  1  0  0  0  0
  1 28  1  0  0  0  0
  2  3  1  0  0  0  0
  2 29  1  0  0  0  0
  2 30  1  0  0  0  0
  3  4  1  0  0  0  0
  4  5  2  0  0  0  0
  4  6  1  0  0  0  0
  6 11  2  0  0  0  0
  6  7  1  0  0  0  0
  7  8  2  0  0  0  0
  7 31  1  0  0  0  0
  8  9  1  0  0  0  0
  8 32  1  0  0  0  0
  9 10  2  0  0  0  0
  9 33  1  0  0  0  0
 10 11  1  0  0  0  0
 10 34  1  0  0  0  0
 11 12  1  0  0  0  0
 12 13  1  0  0  0  0
 12 35  1  0  0  0  0
 13 14  2  0  0  0  0
 13 15  1  0  0  0  0
 15 16  1  6  0  0  0
 15 25  1  0  0  0  0
 15 17  1  0  0  0  0
 17 18  1  0  0  0  0
 17 36  1  0  0  0  0
 17 37  1  0  0  0  0
 18 19  1  0  0  0  0
 19 24  2  0  0  0  0
 19 20  1  0  0  0  0
 20 21  2  0  0  0  0
 20 38  1  0  0  0  0
 21 22  1  0  0  0  0
 21 39  1  0  0  0  0
 22 23  2  0  0  0  0
 22 40  1  0  0  0  0
 23 24  1  0  0  0  0
 23 41  1  0  0  0  0
 24 25  1  0  0  0  0
M  END
$$$$
