ZINC000000001188      none
 OpenBabel11202420153D

 31 32  0  0  0  0  0  0  0  0999 V2000
   32.3426   37.0307   61.2041 O   0  0  0  0  0  0  0  0  0  0  0  0
   32.0271   35.9521   60.7400 C   0  0  0  0  0  0  0  0  0  0  0  0
   32.1123   35.7388   59.4119 N   0  0  0  0  0  0  0  0  0  0  0  0
   32.5641   36.7594   58.5669 C   0  0  0  0  0  0  0  0  0  0  0  0
   33.2403   36.4442   57.3957 C   0  0  0  0  0  0  0  0  0  0  0  0
   33.6812   37.4528   56.5615 C   0  0  0  0  0  0  0  0  0  0  0  0
   33.4580   38.7767   56.8967 C   0  0  0  0  0  0  0  0  0  0  0  0
   34.0188   40.0423   55.8490 Cl  0  0  0  0  0  0  0  0  0  0  0  0
   32.7889   39.0936   58.0658 C   0  0  0  0  0  0  0  0  0  0  0  0
   32.3417   38.0886   58.9011 C   0  0  0  0  0  0  0  0  0  0  0  0
   31.5920   34.9696   61.5536 N   0  0  0  0  0  0  0  0  0  0  0  0
   31.5088   35.1890   62.9337 C   0  0  0  0  0  0  0  0  0  0  0  0
   30.5545   34.5191   63.6883 C   0  0  0  0  0  0  0  0  0  0  0  0
   30.4748   34.7369   65.0494 C   0  0  0  0  0  0  0  0  0  0  0  0
   31.3450   35.6220   65.6620 C   0  0  0  0  0  0  0  0  0  0  0  0
   31.2418   35.8941   67.3735 Cl  0  0  0  0  0  0  0  0  0  0  0  0
   32.2965   36.2906   64.9127 C   0  0  0  0  0  0  0  0  0  0  0  0
   33.2426   37.2533   65.5829 C   0  0  0  0  0  0  0  0  0  0  0  0
   32.9658   37.3012   66.9534 F   0  0  0  0  0  0  0  0  0  0  0  0
   34.5599   36.8244   65.3879 F   0  0  0  0  0  0  0  0  0  0  0  0
   33.0806   38.5279   65.0296 F   0  0  0  0  0  0  0  0  0  0  0  0
   32.3839   36.0723   63.5515 C   0  0  0  0  0  0  0  0  0  0  0  0
   31.8607   34.8784   59.0417 H   0  0  0  0  0  0  0  0  0  0  0  0
   33.4184   35.4112   57.1357 H   0  0  0  0  0  0  0  0  0  0  0  0
   34.2039   37.2081   55.6487 H   0  0  0  0  0  0  0  0  0  0  0  0
   32.6165   40.1277   58.3255 H   0  0  0  0  0  0  0  0  0  0  0  0
   31.8199   38.3365   59.8136 H   0  0  0  0  0  0  0  0  0  0  0  0
   31.3404   34.1090   61.1834 H   0  0  0  0  0  0  0  0  0  0  0  0
   29.8755   33.8282   63.2108 H   0  0  0  0  0  0  0  0  0  0  0  0
   29.7330   34.2160   65.6367 H   0  0  0  0  0  0  0  0  0  0  0  0
   33.1298   36.5912   62.9675 H   0  0  0  0  0  0  0  0  0  0  0  0
  1  2  2  0  0  0  0
  2  3  1  0  0  0  0
  2 11  1  0  0  0  0
  3  4  1  0  0  0  0
  3 23  1  0  0  0  0
  4 10  2  0  0  0  0
  4  5  1  0  0  0  0
  5  6  2  0  0  0  0
  5 24  1  0  0  0  0
  6  7  1  0  0  0  0
  6 25  1  0  0  0  0
  7  8  1  0  0  0  0
  7  9  2  0  0  0  0
  9 10  1  0  0  0  0
  9 26  1  0  0  0  0
 10 27  1  0  0  0  0
 11 12  1  0  0  0  0
 11 28  1  0  0  0  0
 12 22  2  0  0  0  0
 12 13  1  0  0  0  0
 13 14  2  0  0  0  0
 13 29  1  0  0  0  0
 14 15  1  0  0  0  0
 14 30  1  0  0  0  0
 15 16  1  0  0  0  0
 15 17  2  0  0  0  0
 17 18  1  0  0  0  0
 17 22  1  0  0  0  0
 18 19  1  0  0  0  0
 18 20  1  0  0  0  0
 18 21  1  0  0  0  0
 22 31  1  0  0  0  0
M  END
$$$$
