ZINC000000044152      none
 OpenBabel11202420153D

 36 38  0  0  0  0  0  0  0  0999 V2000
   33.6306   33.7249   56.1201 C   0  0  0  0  0  0  0  0  0  0  0  0
   33.4536   35.1941   56.4048 C   0  0  0  0  0  0  0  0  0  0  0  0
   33.7326   36.1165   55.4120 C   0  0  0  0  0  0  0  0  0  0  0  0
   33.5710   37.4663   55.6703 C   0  0  0  0  0  0  0  0  0  0  0  0
   33.1262   37.8517   56.9402 C   0  0  0  0  0  0  0  0  0  0  0  0
   32.9367   39.2352   57.2576 C   0  0  0  0  0  0  0  0  0  0  0  0
   32.7864   40.3327   57.5095 N   0  0  0  0  0  0  0  0  0  0  0  0
   32.8629   36.8549   57.8965 C   0  0  0  0  0  0  0  0  0  0  0  0
   32.3017   37.3088   59.5039 S   0  0  0  0  0  0  0  0  0  0  0  0
   31.3061   35.8533   59.9117 C   0  0  0  0  0  0  0  0  0  0  0  0
   31.3222   35.6355   61.4029 C   0  0  0  0  0  0  0  0  0  0  0  0
   31.7568   34.5987   61.8598 O   0  0  0  0  0  0  0  0  0  0  0  0
   30.8134   36.6748   62.3002 C   0  0  0  0  0  0  0  0  0  0  0  0
   31.6380   37.2469   63.2596 C   0  0  0  0  0  0  0  0  0  0  0  0
   31.1044   38.2524   64.1025 C   0  0  0  0  0  0  0  0  0  0  0  0
   31.9118   38.8557   65.0797 C   0  0  0  0  0  0  0  0  0  0  0  0
   31.3900   39.8201   65.8919 C   0  0  0  0  0  0  0  0  0  0  0  0
   30.0643   40.2106   65.7595 C   0  0  0  0  0  0  0  0  0  0  0  0
   29.2530   39.6319   64.8068 C   0  0  0  0  0  0  0  0  0  0  0  0
   29.7606   38.6468   63.9666 C   0  0  0  0  0  0  0  0  0  0  0  0
   28.9631   38.0819   63.0350 O   0  0  0  0  0  0  0  0  0  0  0  0
   29.4189   37.1279   62.2065 C   0  0  0  0  0  0  0  0  0  0  0  0
   28.6757   36.6377   61.3776 O   0  0  0  0  0  0  0  0  0  0  0  0
   33.0352   35.5766   57.5953 N   0  0  0  0  0  0  0  0  0  0  0  0
   32.6998   33.3162   55.7269 H   0  0  0  0  0  0  0  0  0  0  0  0
   34.4252   33.5901   55.3863 H   0  0  0  0  0  0  0  0  0  0  0  0
   33.8949   33.2056   57.0413 H   0  0  0  0  0  0  0  0  0  0  0  0
   34.0744   35.7853   54.4425 H   0  0  0  0  0  0  0  0  0  0  0  0
   33.7827   38.2042   54.9107 H   0  0  0  0  0  0  0  0  0  0  0  0
   30.2802   36.0097   59.5785 H   0  0  0  0  0  0  0  0  0  0  0  0
   31.7209   34.9778   59.4122 H   0  0  0  0  0  0  0  0  0  0  0  0
   32.6670   36.9341   63.3587 H   0  0  0  0  0  0  0  0  0  0  0  0
   32.9439   38.5568   65.1887 H   0  0  0  0  0  0  0  0  0  0  0  0
   32.0128   40.2833   66.6430 H   0  0  0  0  0  0  0  0  0  0  0  0
   29.6646   40.9754   66.4088 H   0  0  0  0  0  0  0  0  0  0  0  0
   28.2234   39.9439   64.7126 H   0  0  0  0  0  0  0  0  0  0  0  0
  1  2  1  0  0  0  0
  1 25  1  0  0  0  0
  1 26  1  0  0  0  0
  1 27  1  0  0  0  0
  2 24  2  0  0  0  0
  2  3  1  0  0  0  0
  3  4  2  0  0  0  0
  3 28  1  0  0  0  0
  4  5  1  0  0  0  0
  4 29  1  0  0  0  0
  5  6  1  0  0  0  0
  5  8  2  0  0  0  0
  6  7  3  0  0  0  0
  8  9  1  0  0  0  0
  8 24  1  0  0  0  0
  9 10  1  0  0  0  0
 10 11  1  0  0  0  0
 10 30  1  0  0  0  0
 10 31  1  0  0  0  0
 11 12  2  0  0  0  0
 11 13  1  0  0  0  0
 13 22  1  0  0  0  0
 13 14  2  0  0  0  0
 14 15  1  0  0  0  0
 14 32  1  0  0  0  0
 15 20  2  0  0  0  0
 15 16  1  0  0  0  0
 16 17  2  0  0  0  0
 16 33  1  0  0  0  0
 17 18  1  0  0  0  0
 17 34  1  0  0  0  0
 18 19  2  0  0  0  0
 18 35  1  0  0  0  0
 19 20  1  0  0  0  0
 19 36  1  0  0  0  0
 20 21  1  0  0  0  0
 21 22  1  0  0  0  0
 22 23  2  0  0  0  0
M  END
$$$$
