ZINC000000005160      none
 OpenBabel11202420153D

 25 27  0  0  0  0  0  0  0  0999 V2000
   31.6950   35.5988   61.2346 N   0  0  0  0  0  0  0  0  0  0  0  0
   32.0722   36.0039   60.2425 C   0  0  0  0  0  0  0  0  0  0  0  0
   32.5477   36.5146   58.9920 C   0  0  0  0  0  0  0  0  0  0  0  0
   32.7235   35.8100   57.8380 C   0  0  0  0  0  0  0  0  0  0  0  0
   33.1917   36.6338   56.8605 N   0  0  0  0  0  0  0  0  0  0  0  0
   33.3351   37.9130   57.3513 C   0  0  0  0  0  0  0  0  0  0  0  0
   33.7629   39.1200   56.8052 C   0  0  0  0  0  0  0  0  0  0  0  0
   34.2643   39.2119   55.1458 Cl  0  0  0  0  0  0  0  0  0  0  0  0
   33.7804   40.1964   57.5761 N   0  0  0  0  0  0  0  0  0  0  0  0
   33.4032   40.1442   58.8409 C   0  0  0  0  0  0  0  0  0  0  0  0
   32.9859   39.0298   59.4031 N   0  0  0  0  0  0  0  0  0  0  0  0
   32.9414   37.9002   58.7021 C   0  0  0  0  0  0  0  0  0  0  0  0
   33.4925   36.1971   55.4889 C   0  0  0  0  0  0  0  0  0  0  0  0
   33.6207   34.6715   55.4696 C   0  0  0  0  0  0  0  0  0  0  0  0
   32.3943   34.0471   56.1416 C   0  0  0  0  0  0  0  0  0  0  0  0
   32.4469   34.3360   57.6467 C   0  0  0  0  0  0  0  0  0  0  0  0
   33.4343   41.0472   59.4324 H   0  0  0  0  0  0  0  0  0  0  0  0
   34.4297   36.6462   55.1601 H   0  0  0  0  0  0  0  0  0  0  0  0
   32.6859   36.5039   54.8231 H   0  0  0  0  0  0  0  0  0  0  0  0
   34.5205   34.3757   56.0089 H   0  0  0  0  0  0  0  0  0  0  0  0
   33.6853   34.3254   54.4380 H   0  0  0  0  0  0  0  0  0  0  0  0
   32.3973   32.9697   55.9768 H   0  0  0  0  0  0  0  0  0  0  0  0
   31.4866   34.4782   55.7193 H   0  0  0  0  0  0  0  0  0  0  0  0
   33.2435   33.7501   58.1055 H   0  0  0  0  0  0  0  0  0  0  0  0
   31.4913   34.0791   58.1037 H   0  0  0  0  0  0  0  0  0  0  0  0
  1  2  3  0  0  0  0
  2  3  1  0  0  0  0
  3 12  1  0  0  0  0
  3  4  2  0  0  0  0
  4 16  1  0  0  0  0
  4  5  1  0  0  0  0
  5  6  1  0  0  0  0
  5 13  1  0  0  0  0
  6 12  2  0  0  0  0
  6  7  1  0  0  0  0
  7  8  1  0  0  0  0
  7  9  2  0  0  0  0
  9 10  1  0  0  0  0
 10 11  2  0  0  0  0
 10 17  1  0  0  0  0
 11 12  1  0  0  0  0
 13 14  1  0  0  0  0
 13 18  1  0  0  0  0
 13 19  1  0  0  0  0
 14 15  1  0  0  0  0
 14 20  1  0  0  0  0
 14 21  1  0  0  0  0
 15 16  1  0  0  0  0
 15 22  1  0  0  0  0
 15 23  1  0  0  0  0
 16 24  1  0  0  0  0
 16 25  1  0  0  0  0
M  END
$$$$
