ZINC000000051284      none
 OpenBabel11202420153D

 37 38  0  0  0  0  0  0  0  0999 V2000
   32.3428   32.9916   60.6590 C   0  0  0  0  0  0  0  0  0  0  0  0
   31.4129   33.7925   59.9270 O   0  0  0  0  0  0  0  0  0  0  0  0
   31.9287   34.7771   59.1438 C   0  0  0  0  0  0  0  0  0  0  0  0
   32.2551   34.5131   57.8271 C   0  0  0  0  0  0  0  0  0  0  0  0
   32.7845   35.5275   57.0250 C   0  0  0  0  0  0  0  0  0  0  0  0
   33.1346   35.2514   55.6195 C   0  0  0  0  0  0  0  0  0  0  0  0
   32.3743   36.1270   54.3602 S   0  0  0  0  0  0  0  0  0  0  0  0
   34.0572   34.3137   55.3265 N   0  0  0  0  0  0  0  0  0  0  0  0
   34.7287   33.5526   56.3920 C   0  0  0  0  0  0  0  0  0  0  0  0
   34.6230   32.0572   56.0523 C   0  0  0  0  0  0  0  0  0  0  0  0
   35.1015   31.8437   54.7222 O   0  0  0  0  0  0  0  0  0  0  0  0
   34.3403   32.5102   53.7122 C   0  0  0  0  0  0  0  0  0  0  0  0
   34.4275   34.0248   53.9319 C   0  0  0  0  0  0  0  0  0  0  0  0
   32.9869   36.8028   57.5598 C   0  0  0  0  0  0  0  0  0  0  0  0
   32.6543   37.0604   58.8719 C   0  0  0  0  0  0  0  0  0  0  0  0
   32.1278   36.0528   59.6687 C   0  0  0  0  0  0  0  0  0  0  0  0
   31.8064   36.3107   60.9632 O   0  0  0  0  0  0  0  0  0  0  0  0
   30.5569   36.7375   61.2077 C   0  0  0  0  0  0  0  0  0  0  0  0
   30.1280   37.0437   62.6195 C   0  0  0  0  0  0  0  0  0  0  0  0
   29.7766   36.8758   60.2957 O   0  0  0  0  0  0  0  0  0  0  0  0
   33.0166   32.4904   59.9640 H   0  0  0  0  0  0  0  0  0  0  0  0
   32.9203   33.6273   61.3301 H   0  0  0  0  0  0  0  0  0  0  0  0
   31.8010   32.2462   61.2411 H   0  0  0  0  0  0  0  0  0  0  0  0
   32.1017   33.5249   57.4192 H   0  0  0  0  0  0  0  0  0  0  0  0
   35.7770   33.8460   56.4481 H   0  0  0  0  0  0  0  0  0  0  0  0
   34.2405   33.7489   57.3467 H   0  0  0  0  0  0  0  0  0  0  0  0
   33.5830   31.7383   56.1207 H   0  0  0  0  0  0  0  0  0  0  0  0
   35.2272   31.4815   56.7535 H   0  0  0  0  0  0  0  0  0  0  0  0
   33.2992   32.1929   53.7721 H   0  0  0  0  0  0  0  0  0  0  0  0
   34.7409   32.2612   52.7296 H   0  0  0  0  0  0  0  0  0  0  0  0
   33.7396   34.5339   53.2566 H   0  0  0  0  0  0  0  0  0  0  0  0
   35.4458   34.3650   53.7444 H   0  0  0  0  0  0  0  0  0  0  0  0
   33.4004   37.5873   56.9434 H   0  0  0  0  0  0  0  0  0  0  0  0
   32.8073   38.0474   59.2827 H   0  0  0  0  0  0  0  0  0  0  0  0
   30.9600   36.8611   63.2997 H   0  0  0  0  0  0  0  0  0  0  0  0
   29.8249   38.0885   62.6887 H   0  0  0  0  0  0  0  0  0  0  0  0
   29.2891   36.4032   62.8915 H   0  0  0  0  0  0  0  0  0  0  0  0
  1  2  1  0  0  0  0
  1 21  1  0  0  0  0
  1 22  1  0  0  0  0
  1 23  1  0  0  0  0
  2  3  1  0  0  0  0
  3 16  2  0  0  0  0
  3  4  1  0  0  0  0
  4  5  2  0  0  0  0
  4 24  1  0  0  0  0
  5  6  1  0  0  0  0
  5 14  1  0  0  0  0
  6  7  2  0  0  0  0
  6  8  1  0  0  0  0
  8 13  1  0  0  0  0
  8  9  1  0  0  0  0
  9 10  1  0  0  0  0
  9 25  1  0  0  0  0
  9 26  1  0  0  0  0
 10 11  1  0  0  0  0
 10 27  1  0  0  0  0
 10 28  1  0  0  0  0
 11 12  1  0  0  0  0
 12 13  1  0  0  0  0
 12 29  1  0  0  0  0
 12 30  1  0  0  0  0
 13 31  1  0  0  0  0
 13 32  1  0  0  0  0
 14 15  2  0  0  0  0
 14 33  1  0  0  0  0
 15 16  1  0  0  0  0
 15 34  1  0  0  0  0
 16 17  1  0  0  0  0
 17 18  1  0  0  0  0
 18 19  1  0  0  0  0
 18 20  2  0  0  0  0
 19 35  1  0  0  0  0
 19 36  1  0  0  0  0
 19 37  1  0  0  0  0
M  END
$$$$
