ZINC000000017601      none
 OpenBabel11202420153D

 38 40  0  0  0  0  0  0  0  0999 V2000
   30.5308   35.6506   65.0953 O   0  0  0  0  0  0  0  0  0  0  0  0
   30.8769   36.6172   64.4444 C   0  0  0  0  0  0  0  0  0  0  0  0
   31.4590   37.7949   65.1226 C   0  0  0  0  0  0  0  0  0  0  0  0
   32.6289   37.6730   65.8822 C   0  0  0  0  0  0  0  0  0  0  0  0
   33.1358   38.8067   66.4921 C   0  0  0  0  0  0  0  0  0  0  0  0
   32.4707   40.0107   66.3428 C   0  0  0  0  0  0  0  0  0  0  0  0
   31.3669   40.0945   65.6252 N   0  0  0  0  0  0  0  0  0  0  0  0
   30.8486   39.0454   65.0212 C   0  0  0  0  0  0  0  0  0  0  0  0
   30.7300   36.6151   63.1047 N   0  0  0  0  0  0  0  0  0  0  0  0
   31.1364   37.7765   62.2990 C   0  0  0  0  0  0  0  0  0  0  0  0
   32.0357   37.2871   61.1588 C   0  0  0  0  0  0  0  0  0  0  0  0
   31.3438   36.2263   60.4145 N   0  0  0  0  0  0  0  0  0  0  0  0
   32.0543   35.8713   59.2811 C   0  0  0  0  0  0  0  0  0  0  0  0
   32.4756   34.6221   59.1467 N   0  0  0  0  0  0  0  0  0  0  0  0
   33.1570   34.2500   58.0760 C   0  0  0  0  0  0  0  0  0  0  0  0
   33.4285   35.1845   57.0888 C   0  0  0  0  0  0  0  0  0  0  0  0
   32.9731   36.4819   57.2613 C   0  0  0  0  0  0  0  0  0  0  0  0
   33.2450   37.5312   56.2143 C   0  0  0  0  0  0  0  0  0  0  0  0
   33.9712   36.9629   55.1622 F   0  0  0  0  0  0  0  0  0  0  0  0
   32.0318   38.0296   55.7275 F   0  0  0  0  0  0  0  0  0  0  0  0
   33.9843   38.5749   56.7809 F   0  0  0  0  0  0  0  0  0  0  0  0
   32.2924   36.7870   58.3538 N   0  0  0  0  0  0  0  0  0  0  0  0
   31.0912   35.0561   61.2657 C   0  0  0  0  0  0  0  0  0  0  0  0
   30.1533   35.4539   62.4104 C   0  0  0  0  0  0  0  0  0  0  0  0
   33.1250   36.7193   65.9861 H   0  0  0  0  0  0  0  0  0  0  0  0
   34.0385   38.7514   67.0825 H   0  0  0  0  0  0  0  0  0  0  0  0
   32.8619   40.8965   66.8212 H   0  0  0  0  0  0  0  0  0  0  0  0
   29.9431   39.1537   64.4428 H   0  0  0  0  0  0  0  0  0  0  0  0
   30.2528   38.2627   61.8855 H   0  0  0  0  0  0  0  0  0  0  0  0
   31.6868   38.4806   62.9231 H   0  0  0  0  0  0  0  0  0  0  0  0
   32.9653   36.8950   61.5714 H   0  0  0  0  0  0  0  0  0  0  0  0
   32.2570   38.1171   60.4878 H   0  0  0  0  0  0  0  0  0  0  0  0
   33.4976   33.2304   57.9720 H   0  0  0  0  0  0  0  0  0  0  0  0
   33.9833   34.9075   56.2044 H   0  0  0  0  0  0  0  0  0  0  0  0
   32.0339   34.6949   61.6769 H   0  0  0  0  0  0  0  0  0  0  0  0
   30.6274   34.2677   60.6727 H   0  0  0  0  0  0  0  0  0  0  0  0
   30.0537   34.6224   63.1080 H   0  0  0  0  0  0  0  0  0  0  0  0
   29.1751   35.7167   62.0076 H   0  0  0  0  0  0  0  0  0  0  0  0
  1  2  2  0  0  0  0
  2  3  1  0  0  0  0
  2  9  1  0  0  0  0
  3  8  2  0  0  0  0
  3  4  1  0  0  0  0
  4  5  2  0  0  0  0
  4 25  1  0  0  0  0
  5  6  1  0  0  0  0
  5 26  1  0  0  0  0
  6  7  2  0  0  0  0
  6 27  1  0  0  0  0
  7  8  1  0  0  0  0
  8 28  1  0  0  0  0
  9 24  1  0  0  0  0
  9 10  1  0  0  0  0
 10 11  1  0  0  0  0
 10 29  1  0  0  0  0
 10 30  1  0  0  0  0
 11 12  1  0  0  0  0
 11 31  1  0  0  0  0
 11 32  1  0  0  0  0
 12 13  1  0  0  0  0
 12 23  1  0  0  0  0
 13 22  2  0  0  0  0
 13 14  1  0  0  0  0
 14 15  2  0  0  0  0
 15 16  1  0  0  0  0
 15 33  1  0  0  0  0
 16 17  2  0  0  0  0
 16 34  1  0  0  0  0
 17 18  1  0  0  0  0
 17 22  1  0  0  0  0
 18 19  1  0  0  0  0
 18 20  1  0  0  0  0
 18 21  1  0  0  0  0
 23 24  1  0  0  0  0
 23 35  1  0  0  0  0
 23 36  1  0  0  0  0
 24 37  1  0  0  0  0
 24 38  1  0  0  0  0
M  END
$$$$
