ZINC000000000534      none
 OpenBabel11202420153D

 33 35  0  0  1  0  0  0  0  0999 V2000
   34.8353   38.1498   53.7042 C   0  0  0  0  0  0  0  0  0  0  0  0
   35.1929   38.2916   55.0804 O   0  0  0  0  0  0  0  0  0  0  0  0
   34.1806   38.2601   55.9877 C   0  0  0  0  0  0  0  0  0  0  0  0
   33.7890   37.0609   56.5436 C   0  0  0  0  0  0  0  0  0  0  0  0
   32.7459   37.0163   57.4813 C   0  0  0  0  0  0  0  0  0  0  0  0
   32.0873   38.1992   57.8425 C   0  0  0  0  0  0  0  0  0  0  0  0
   32.5038   39.4111   57.2732 C   0  0  0  0  0  0  0  0  0  0  0  0
   33.5404   39.4425   56.3618 C   0  0  0  0  0  0  0  0  0  0  0  0
   33.9349   40.6259   55.8246 O   0  0  0  0  0  0  0  0  0  0  0  0
   31.0438   38.2544   58.7116 N   0  0  0  0  0  0  0  0  0  0  0  0
   30.9236   37.6335   59.8143 C   0  0  0  0  0  0  0  0  0  0  0  0
   31.9709   36.6743   60.3125 C   0  0  1  0  0  0  0  0  0  0  0  0
   32.9290   37.1814   60.4270 H   0  0  0  0  0  0  0  0  0  0  0  0
   31.5178   36.0665   61.6554 C   0  0  0  0  0  0  0  0  0  0  0  0
   31.9602   34.5843   61.5298 C   0  0  0  0  0  0  0  0  0  0  0  0
   31.7118   34.3104   60.0257 C   0  0  2  0  0  0  0  0  0  0  0  0
   30.6632   34.0677   59.8531 H   0  0  0  0  0  0  0  0  0  0  0  0
   32.5483   33.2451   59.5703 O   0  0  0  0  0  0  0  0  0  0  0  0
   32.0644   35.5672   59.3451 N   0  0  0  0  0  0  0  0  0  0  0  0
   32.4031   35.7065   58.0551 C   0  0  0  0  0  0  0  0  0  0  0  0
   32.4269   34.7229   57.3403 O   0  0  0  0  0  0  0  0  0  0  0  0
   35.7341   38.1924   53.0889 H   0  0  0  0  0  0  0  0  0  0  0  0
   34.3378   37.1916   53.5549 H   0  0  0  0  0  0  0  0  0  0  0  0
   34.1612   38.9575   53.4189 H   0  0  0  0  0  0  0  0  0  0  0  0
   34.2889   36.1482   56.2548 H   0  0  0  0  0  0  0  0  0  0  0  0
   32.0113   40.3304   57.5539 H   0  0  0  0  0  0  0  0  0  0  0  0
   33.4338   41.3889   56.1434 H   0  0  0  0  0  0  0  0  0  0  0  0
   30.0408   37.8001   60.4137 H   0  0  0  0  0  0  0  0  0  0  0  0
   32.0253   36.5516   62.4893 H   0  0  0  0  0  0  0  0  0  0  0  0
   30.4362   36.1413   61.7675 H   0  0  0  0  0  0  0  0  0  0  0  0
   33.0153   34.4693   61.7786 H   0  0  0  0  0  0  0  0  0  0  0  0
   31.3411   33.9379   62.1519 H   0  0  0  0  0  0  0  0  0  0  0  0
   32.4520   33.0439   58.6294 H   0  0  0  0  0  0  0  0  0  0  0  0
  1  2  1  0  0  0  0
  1 22  1  0  0  0  0
  1 23  1  0  0  0  0
  1 24  1  0  0  0  0
  2  3  1  0  0  0  0
  3  8  2  0  0  0  0
  3  4  1  0  0  0  0
  4  5  2  0  0  0  0
  4 25  1  0  0  0  0
  5 20  1  0  0  0  0
  5  6  1  0  0  0  0
  6  7  2  0  0  0  0
  6 10  1  0  0  0  0
  7  8  1  0  0  0  0
  7 26  1  0  0  0  0
  8  9  1  0  0  0  0
  9 27  1  0  0  0  0
 10 11  2  0  0  0  0
 11 12  1  0  0  0  0
 11 28  1  0  0  0  0
 12 13  1  1  0  0  0
 12 19  1  0  0  0  0
 12 14  1  0  0  0  0
 14 15  1  0  0  0  0
 14 29  1  0  0  0  0
 14 30  1  0  0  0  0
 15 16  1  0  0  0  0
 15 31  1  0  0  0  0
 15 32  1  0  0  0  0
 16 17  1  6  0  0  0
 16 18  1  0  0  0  0
 16 19  1  0  0  0  0
 18 33  1  0  0  0  0
 19 20  1  0  0  0  0
 20 21  2  0  0  0  0
M  END
$$$$
