ZINC000000043602      none
 OpenBabel11202420153D

 38 40  0  0  0  0  0  0  0  0999 V2000
   31.8697   32.8179   61.8138 C   0  0  0  0  0  0  0  0  0  0  0  0
   32.5451   34.0719   61.9303 O   0  0  0  0  0  0  0  0  0  0  0  0
   32.1109   34.9175   62.8980 C   0  0  0  0  0  0  0  0  0  0  0  0
   32.7279   36.1560   63.0636 C   0  0  0  0  0  0  0  0  0  0  0  0
   32.3021   37.0158   64.0325 C   0  0  0  0  0  0  0  0  0  0  0  0
   31.2346   36.6565   64.8712 C   0  0  0  0  0  0  0  0  0  0  0  0
   30.7888   37.5475   65.8783 C   0  0  0  0  0  0  0  0  0  0  0  0
   29.7985   38.4710   65.5957 C   0  0  0  0  0  0  0  0  0  0  0  0
   29.0452   39.3459   66.5176 C   0  0  0  0  0  0  0  0  0  0  0  0
   29.1536   39.4236   67.7278 O   0  0  0  0  0  0  0  0  0  0  0  0
   28.2117   40.0385   65.7181 O   0  0  0  0  0  0  0  0  0  0  0  0
   28.3172   39.7590   64.5528 N   0  0  0  0  0  0  0  0  0  0  0  0
   29.2142   38.8512   64.2841 C   0  0  0  0  0  0  0  0  0  0  0  0
   29.5725   38.3103   62.9511 C   0  0  0  0  0  0  0  0  0  0  0  0
   30.5747   38.9176   62.1958 C   0  0  0  0  0  0  0  0  0  0  0  0
   30.9081   38.4060   60.9584 C   0  0  0  0  0  0  0  0  0  0  0  0
   30.2418   37.3000   60.4617 C   0  0  0  0  0  0  0  0  0  0  0  0
   29.2427   36.6966   61.2042 C   0  0  0  0  0  0  0  0  0  0  0  0
   28.9048   37.1958   62.4456 C   0  0  0  0  0  0  0  0  0  0  0  0
   30.6095   35.4041   64.7056 C   0  0  0  0  0  0  0  0  0  0  0  0
   29.5747   35.0469   65.5056 O   0  0  0  0  0  0  0  0  0  0  0  0
   29.8974   34.3583   66.7154 C   0  0  0  0  0  0  0  0  0  0  0  0
   31.0548   34.5441   63.7177 C   0  0  0  0  0  0  0  0  0  0  0  0
   31.9641   32.2660   62.7491 H   0  0  0  0  0  0  0  0  0  0  0  0
   30.8153   32.9916   61.5995 H   0  0  0  0  0  0  0  0  0  0  0  0
   32.3145   32.2394   61.0042 H   0  0  0  0  0  0  0  0  0  0  0  0
   33.5491   36.4366   62.4206 H   0  0  0  0  0  0  0  0  0  0  0  0
   32.7861   37.9735   64.1550 H   0  0  0  0  0  0  0  0  0  0  0  0
   31.2222   37.5058   66.8666 H   0  0  0  0  0  0  0  0  0  0  0  0
   31.0923   39.7839   62.5805 H   0  0  0  0  0  0  0  0  0  0  0  0
   31.6876   38.8727   60.3744 H   0  0  0  0  0  0  0  0  0  0  0  0
   30.5029   36.9060   59.4907 H   0  0  0  0  0  0  0  0  0  0  0  0
   28.7258   35.8336   60.8115 H   0  0  0  0  0  0  0  0  0  0  0  0
   28.1249   36.7238   63.0246 H   0  0  0  0  0  0  0  0  0  0  0  0
   28.9809   34.1317   67.2602 H   0  0  0  0  0  0  0  0  0  0  0  0
   30.4176   33.4303   66.4775 H   0  0  0  0  0  0  0  0  0  0  0  0
   30.5401   34.9874   67.3312 H   0  0  0  0  0  0  0  0  0  0  0  0
   30.5814   33.5827   63.5846 H   0  0  0  0  0  0  0  0  0  0  0  0
  1  2  1  0  0  0  0
  1 24  1  0  0  0  0
  1 25  1  0  0  0  0
  1 26  1  0  0  0  0
  2  3  1  0  0  0  0
  3 23  2  0  0  0  0
  3  4  1  0  0  0  0
  4  5  2  0  0  0  0
  4 27  1  0  0  0  0
  5  6  1  0  0  0  0
  5 28  1  0  0  0  0
  6  7  1  0  0  0  0
  6 20  2  0  0  0  0
  7  8  2  0  0  0  0
  7 29  1  0  0  0  0
  8 13  1  0  0  0  0
  8  9  1  0  0  0  0
  9 10  2  0  0  0  0
  9 11  1  0  0  0  0
 11 12  1  0  0  0  0
 12 13  2  0  0  0  0
 13 14  1  0  0  0  0
 14 19  2  0  0  0  0
 14 15  1  0  0  0  0
 15 16  2  0  0  0  0
 15 30  1  0  0  0  0
 16 17  1  0  0  0  0
 16 31  1  0  0  0  0
 17 18  2  0  0  0  0
 17 32  1  0  0  0  0
 18 19  1  0  0  0  0
 18 33  1  0  0  0  0
 19 34  1  0  0  0  0
 20 21  1  0  0  0  0
 20 23  1  0  0  0  0
 21 22  1  0  0  0  0
 22 35  1  0  0  0  0
 22 36  1  0  0  0  0
 22 37  1  0  0  0  0
 23 38  1  0  0  0  0
M  END
$$$$
