ZINC000000031620      none
 OpenBabel11202420163D

 31 33  0  0  0  0  0  0  0  0999 V2000
   31.6805   35.4546   61.3425 N   0  0  0  0  0  0  0  0  0  0  0  0
   32.0429   36.4534   60.4841 N   0  0  0  0  0  0  0  0  0  0  0  0
   32.0105   37.7552   60.9033 C   0  0  0  0  0  0  0  0  0  0  0  0
   31.5790   38.0385   62.2884 C   0  0  0  0  0  0  0  0  0  0  0  0
   30.4595   38.8387   62.5241 C   0  0  0  0  0  0  0  0  0  0  0  0
   30.0621   39.0991   63.8190 C   0  0  0  0  0  0  0  0  0  0  0  0
   30.7704   38.5697   64.8831 C   0  0  0  0  0  0  0  0  0  0  0  0
   31.8800   37.7747   64.6566 C   0  0  0  0  0  0  0  0  0  0  0  0
   32.6310   37.2112   65.8009 N   0  0  0  0  0  0  0  0  0  0  0  0
   32.2715   37.4470   66.9406 O   0  0  0  0  0  0  0  0  0  0  0  0
   33.6084   36.5120   65.6030 O   0  0  0  0  0  0  0  0  0  0  0  0
   32.2853   37.5025   63.3662 C   0  0  0  0  0  0  0  0  0  0  0  0
   32.3439   38.7609   60.1362 N   0  0  0  0  0  0  0  0  0  0  0  0
   32.7468   38.5770   58.8630 C   0  0  0  0  0  0  0  0  0  0  0  0
   33.1029   39.6540   58.0460 C   0  0  0  0  0  0  0  0  0  0  0  0
   33.5050   39.4270   56.7601 C   0  0  0  0  0  0  0  0  0  0  0  0
   33.5688   38.1375   56.2483 C   0  0  0  0  0  0  0  0  0  0  0  0
   33.2255   37.0554   57.0293 C   0  0  0  0  0  0  0  0  0  0  0  0
   32.8112   37.2640   58.3434 C   0  0  0  0  0  0  0  0  0  0  0  0
   32.4323   36.1492   59.2240 C   0  0  0  0  0  0  0  0  0  0  0  0
   32.4720   34.9961   58.8361 O   0  0  0  0  0  0  0  0  0  0  0  0
   31.6722   34.5608   60.8743 H   0  0  0  0  0  0  0  0  0  0  0  0
   32.2855   35.4344   62.1497 H   0  0  0  0  0  0  0  0  0  0  0  0
   29.9061   39.2531   61.6944 H   0  0  0  0  0  0  0  0  0  0  0  0
   29.1964   39.7179   64.0029 H   0  0  0  0  0  0  0  0  0  0  0  0
   30.4545   38.7755   65.8951 H   0  0  0  0  0  0  0  0  0  0  0  0
   33.1493   36.8787   63.1904 H   0  0  0  0  0  0  0  0  0  0  0  0
   33.0588   40.6626   58.4297 H   0  0  0  0  0  0  0  0  0  0  0  0
   33.7780   40.2626   56.1327 H   0  0  0  0  0  0  0  0  0  0  0  0
   33.8905   37.9814   55.2291 H   0  0  0  0  0  0  0  0  0  0  0  0
   33.2769   36.0546   56.6266 H   0  0  0  0  0  0  0  0  0  0  0  0
  1  2  1  0  0  0  0
  1 22  1  0  0  0  0
  1 23  1  0  0  0  0
  2 20  1  0  0  0  0
  2  3  1  0  0  0  0
  3  4  1  0  0  0  0
  3 13  2  0  0  0  0
  4 12  2  0  0  0  0
  4  5  1  0  0  0  0
  5  6  2  0  0  0  0
  5 24  1  0  0  0  0
  6  7  1  0  0  0  0
  6 25  1  0  0  0  0
  7  8  2  0  0  0  0
  7 26  1  0  0  0  0
  8  9  1  0  0  0  0
  8 12  1  0  0  0  0
  9 10  2  0  0  0  0
  9 11  2  0  0  0  0
 12 27  1  0  0  0  0
 13 14  1  0  0  0  0
 14 19  2  0  0  0  0
 14 15  1  0  0  0  0
 15 16  2  0  0  0  0
 15 28  1  0  0  0  0
 16 17  1  0  0  0  0
 16 29  1  0  0  0  0
 17 18  2  0  0  0  0
 17 30  1  0  0  0  0
 18 19  1  0  0  0  0
 18 31  1  0  0  0  0
 19 20  1  0  0  0  0
 20 21  2  0  0  0  0
M  END
$$$$
