ZINC000000034402      none
 OpenBabel11202420153D

 29 32  0  0  0  0  0  0  0  0999 V2000
   32.9117   34.3702   54.7760 C   0  0  0  0  0  0  0  0  0  0  0  0
   33.4799   35.2403   53.8572 C   0  0  0  0  0  0  0  0  0  0  0  0
   33.7654   36.5372   54.2228 C   0  0  0  0  0  0  0  0  0  0  0  0
   33.4860   36.9789   55.5134 C   0  0  0  0  0  0  0  0  0  0  0  0
   33.7272   38.5466   56.2805 S   0  0  0  0  0  0  0  0  0  0  0  0
   33.0505   37.9318   57.7820 C   0  0  0  0  0  0  0  0  0  0  0  0
   32.8665   38.8708   59.2616 S   0  0  0  0  0  0  0  0  0  0  0  0
   31.4090   38.0626   59.9677 C   0  0  0  0  0  0  0  0  0  0  0  0
   31.8236   36.7825   60.6462 C   0  0  0  0  0  0  0  0  0  0  0  0
   32.1745   36.8146   62.0019 C   0  0  0  0  0  0  0  0  0  0  0  0
   32.5564   35.6986   62.6706 C   0  0  0  0  0  0  0  0  0  0  0  0
   32.6038   34.4668   61.9894 C   0  0  0  0  0  0  0  0  0  0  0  0
   32.9012   33.2157   62.2411 N   0  0  0  0  0  0  0  0  0  0  0  0
   32.7552   32.5612   61.2284 O   0  0  0  0  0  0  0  0  0  0  0  0
   32.3837   33.1685   60.2443 N   0  0  0  0  0  0  0  0  0  0  0  0
   32.2315   34.4327   60.5530 C   0  0  0  0  0  0  0  0  0  0  0  0
   31.8408   35.6326   59.9277 C   0  0  0  0  0  0  0  0  0  0  0  0
   32.7129   36.6942   57.6484 N   0  0  0  0  0  0  0  0  0  0  0  0
   32.9134   36.1124   56.4492 C   0  0  0  0  0  0  0  0  0  0  0  0
   32.6292   34.7886   56.0518 C   0  0  0  0  0  0  0  0  0  0  0  0
   32.6894   33.3543   54.4845 H   0  0  0  0  0  0  0  0  0  0  0  0
   33.6980   34.9010   52.8554 H   0  0  0  0  0  0  0  0  0  0  0  0
   34.2078   37.2134   53.5063 H   0  0  0  0  0  0  0  0  0  0  0  0
   30.9432   38.7258   60.6966 H   0  0  0  0  0  0  0  0  0  0  0  0
   30.6971   37.8386   59.1732 H   0  0  0  0  0  0  0  0  0  0  0  0
   32.1403   37.7560   62.5299 H   0  0  0  0  0  0  0  0  0  0  0  0
   32.8214   35.7536   63.7162 H   0  0  0  0  0  0  0  0  0  0  0  0
   31.5607   35.6377   58.8846 H   0  0  0  0  0  0  0  0  0  0  0  0
   32.1872   34.1001   56.7567 H   0  0  0  0  0  0  0  0  0  0  0  0
  1 20  2  0  0  0  0
  1  2  1  0  0  0  0
  1 21  1  0  0  0  0
  2  3  2  0  0  0  0
  2 22  1  0  0  0  0
  3  4  1  0  0  0  0
  3 23  1  0  0  0  0
  4 19  2  0  0  0  0
  4  5  1  0  0  0  0
  5  6  1  0  0  0  0
  6  7  1  0  0  0  0
  6 18  2  0  0  0  0
  7  8  1  0  0  0  0
  8  9  1  0  0  0  0
  8 24  1  0  0  0  0
  8 25  1  0  0  0  0
  9 17  2  0  0  0  0
  9 10  1  0  0  0  0
 10 11  2  0  0  0  0
 10 26  1  0  0  0  0
 11 12  1  0  0  0  0
 11 27  1  0  0  0  0
 12 16  1  0  0  0  0
 12 13  2  0  0  0  0
 13 14  1  0  0  0  0
 14 15  1  0  0  0  0
 15 16  2  0  0  0  0
 16 17  1  0  0  0  0
 17 28  1  0  0  0  0
 18 19  1  0  0  0  0
 19 20  1  0  0  0  0
 20 29  1  0  0  0  0
M  END
$$$$
