ZINC000000016460      none
 OpenBabel11202420153D

 26 27  0  0  0  0  0  0  0  0999 V2000
   33.6955   37.9432   55.5978 C   0  0  0  0  0  0  0  0  0  0  0  0
   33.2834   38.3289   56.9105 O   0  0  0  0  0  0  0  0  0  0  0  0
   32.9544   37.3321   57.7711 C   0  0  0  0  0  0  0  0  0  0  0  0
   33.0241   36.0082   57.3500 C   0  0  0  0  0  0  0  0  0  0  0  0
   32.6967   34.9845   58.2194 C   0  0  0  0  0  0  0  0  0  0  0  0
   32.7692   33.6920   57.8124 O   0  0  0  0  0  0  0  0  0  0  0  0
   32.2835   35.2926   59.5220 C   0  0  0  0  0  0  0  0  0  0  0  0
   31.9195   34.2377   60.4812 C   0  0  0  0  0  0  0  0  0  0  0  0
   31.9635   33.0579   60.1750 O   0  0  0  0  0  0  0  0  0  0  0  0
   31.5138   34.6510   61.7796 C   0  0  0  0  0  0  0  0  0  0  0  0
   31.4778   35.9609   62.0785 C   0  0  0  0  0  0  0  0  0  0  0  0
   31.0447   36.3731   63.4619 C   0  0  0  0  0  0  0  0  0  0  0  0
   31.6923   35.5454   64.4303 O   0  0  0  0  0  0  0  0  0  0  0  0
   31.8102   36.9146   61.2011 O   0  0  0  0  0  0  0  0  0  0  0  0
   32.2088   36.6319   59.9435 C   0  0  0  0  0  0  0  0  0  0  0  0
   32.5470   37.6441   59.0587 C   0  0  0  0  0  0  0  0  0  0  0  0
   34.5809   37.3111   55.6661 H   0  0  0  0  0  0  0  0  0  0  0  0
   32.8912   37.3905   55.1122 H   0  0  0  0  0  0  0  0  0  0  0  0
   33.9288   38.8334   55.0138 H   0  0  0  0  0  0  0  0  0  0  0  0
   33.3388   35.7793   56.3426 H   0  0  0  0  0  0  0  0  0  0  0  0
   33.0601   33.5838   56.8966 H   0  0  0  0  0  0  0  0  0  0  0  0
   31.2357   33.9169   62.5212 H   0  0  0  0  0  0  0  0  0  0  0  0
   31.3179   37.4143   63.6330 H   0  0  0  0  0  0  0  0  0  0  0  0
   29.9643   36.2614   63.5527 H   0  0  0  0  0  0  0  0  0  0  0  0
   31.4597   35.7547   65.3452 H   0  0  0  0  0  0  0  0  0  0  0  0
   32.4926   38.6760   59.3725 H   0  0  0  0  0  0  0  0  0  0  0  0
  1  2  1  0  0  0  0
  1 17  1  0  0  0  0
  1 18  1  0  0  0  0
  1 19  1  0  0  0  0
  2  3  1  0  0  0  0
  3 16  2  0  0  0  0
  3  4  1  0  0  0  0
  4  5  2  0  0  0  0
  4 20  1  0  0  0  0
  5  6  1  0  0  0  0
  5  7  1  0  0  0  0
  6 21  1  0  0  0  0
  7 15  2  0  0  0  0
  7  8  1  0  0  0  0
  8  9  2  0  0  0  0
  8 10  1  0  0  0  0
 10 11  2  0  0  0  0
 10 22  1  0  0  0  0
 11 12  1  0  0  0  0
 11 14  1  0  0  0  0
 12 13  1  0  0  0  0
 12 23  1  0  0  0  0
 12 24  1  0  0  0  0
 13 25  1  0  0  0  0
 14 15  1  0  0  0  0
 15 16  1  0  0  0  0
 16 26  1  0  0  0  0
M  END
$$$$
