ZINC000000046909      none
 OpenBabel11202420153D

 26 26  0  0  0  0  0  0  0  0999 V2000
   33.2423   37.2826   66.6058 C   0  0  0  0  0  0  0  0  0  0  0  0
   31.9636   37.6111   65.9709 N   0  0  0  0  0  0  0  0  0  0  0  0
   30.9121   38.2771   66.7434 C   0  0  0  0  0  0  0  0  0  0  0  0
   31.7546   37.3004   64.6761 C   0  0  0  0  0  0  0  0  0  0  0  0
   32.9836   36.5221   63.7735 S   0  0  0  0  0  0  0  0  0  0  0  0
   30.2167   37.6955   63.9125 S   0  0  0  0  0  0  0  0  0  0  0  0
   30.5113   37.0818   62.3003 N   0  0  0  0  0  0  0  0  0  0  0  0
   29.2480   36.7701   61.6162 C   0  0  0  0  0  0  0  0  0  0  0  0
   29.5530   36.1830   60.2355 C   0  0  0  0  0  0  0  0  0  0  0  0
   30.3563   37.1067   59.4962 O   0  0  0  0  0  0  0  0  0  0  0  0
   31.5947   37.4312   60.1337 C   0  0  0  0  0  0  0  0  0  0  0  0
   31.3105   38.0320   61.5129 C   0  0  0  0  0  0  0  0  0  0  0  0
   33.9336   38.1164   66.4832 H   0  0  0  0  0  0  0  0  0  0  0  0
   33.0833   37.0955   67.6677 H   0  0  0  0  0  0  0  0  0  0  0  0
   33.6617   36.3915   66.1386 H   0  0  0  0  0  0  0  0  0  0  0  0
   30.2771   37.5269   67.2148 H   0  0  0  0  0  0  0  0  0  0  0  0
   31.3664   38.9032   67.5112 H   0  0  0  0  0  0  0  0  0  0  0  0
   30.3100   38.8966   66.0786 H   0  0  0  0  0  0  0  0  0  0  0  0
   28.6617   37.6819   61.5026 H   0  0  0  0  0  0  0  0  0  0  0  0
   28.6844   36.0452   62.2036 H   0  0  0  0  0  0  0  0  0  0  0  0
   28.6195   36.0041   59.7018 H   0  0  0  0  0  0  0  0  0  0  0  0
   30.0921   35.2427   60.3509 H   0  0  0  0  0  0  0  0  0  0  0  0
   32.1937   36.5276   60.2468 H   0  0  0  0  0  0  0  0  0  0  0  0
   32.1384   38.1546   59.5260 H   0  0  0  0  0  0  0  0  0  0  0  0
   32.2521   38.2280   62.0256 H   0  0  0  0  0  0  0  0  0  0  0  0
   30.7582   38.9646   61.3969 H   0  0  0  0  0  0  0  0  0  0  0  0
  1  2  1  0  0  0  0
  1 13  1  0  0  0  0
  1 14  1  0  0  0  0
  1 15  1  0  0  0  0
  2  3  1  0  0  0  0
  2  4  1  0  0  0  0
  3 16  1  0  0  0  0
  3 17  1  0  0  0  0
  3 18  1  0  0  0  0
  4  5  2  0  0  0  0
  4  6  1  0  0  0  0
  6  7  1  0  0  0  0
  7 12  1  0  0  0  0
  7  8  1  0  0  0  0
  8  9  1  0  0  0  0
  8 19  1  0  0  0  0
  8 20  1  0  0  0  0
  9 10  1  0  0  0  0
  9 21  1  0  0  0  0
  9 22  1  0  0  0  0
 10 11  1  0  0  0  0
 11 12  1  0  0  0  0
 11 23  1  0  0  0  0
 11 24  1  0  0  0  0
 12 25  1  0  0  0  0
 12 26  1  0  0  0  0
M  END
$$$$
