ZINC000000046866      none
 OpenBabel11202420153D

 37 39  0  0  0  0  0  0  0  0999 V2000
   31.1585   35.8193   60.3010 C   0  0  0  0  0  0  0  0  0  0  0  0
   31.8128   36.7660   59.3279 C   0  0  0  0  0  0  0  0  0  0  0  0
   31.7113   37.9641   59.4862 O   0  0  0  0  0  0  0  0  0  0  0  0
   32.5107   36.2811   58.2818 N   0  0  0  0  0  0  0  0  0  0  0  0
   33.1128   37.1522   57.3866 C   0  0  0  0  0  0  0  0  0  0  0  0
   33.0400   38.8482   57.4915 S   0  0  0  0  0  0  0  0  0  0  0  0
   34.0185   39.0640   56.0405 C   0  0  0  0  0  0  0  0  0  0  0  0
   34.3608   37.8874   55.5235 C   0  0  0  0  0  0  0  0  0  0  0  0
   33.8391   36.7651   56.2986 C   0  0  0  0  0  0  0  0  0  0  0  0
   34.0734   35.3623   55.9433 C   0  0  0  0  0  0  0  0  0  0  0  0
   34.1230   34.5139   56.8147 O   0  0  0  0  0  0  0  0  0  0  0  0
   34.2341   35.0120   54.6519 N   0  0  0  0  0  0  0  0  0  0  0  0
   34.4579   33.6736   54.3131 C   0  0  0  0  0  0  0  0  0  0  0  0
   34.0188   33.1826   53.0902 C   0  0  0  0  0  0  0  0  0  0  0  0
   34.2464   31.8620   52.7562 C   0  0  0  0  0  0  0  0  0  0  0  0
   34.9007   31.0258   53.6424 C   0  0  0  0  0  0  0  0  0  0  0  0
   35.3340   31.5102   54.8630 C   0  0  0  0  0  0  0  0  0  0  0  0
   35.1146   32.8313   55.2008 C   0  0  0  0  0  0  0  0  0  0  0  0
   35.2021   38.0881   54.2662 C   0  0  0  0  0  0  0  0  0  0  0  0
   34.9481   39.5502   53.8479 C   0  0  0  0  0  0  0  0  0  0  0  0
   34.5846   40.2007   55.1980 C   0  0  0  0  0  0  0  0  0  0  0  0
   31.8549   35.5881   61.1070 H   0  0  0  0  0  0  0  0  0  0  0  0
   30.2646   36.2852   60.7158 H   0  0  0  0  0  0  0  0  0  0  0  0
   30.8828   34.9002   59.7841 H   0  0  0  0  0  0  0  0  0  0  0  0
   32.5919   35.3228   58.1553 H   0  0  0  0  0  0  0  0  0  0  0  0
   34.1946   35.6880   53.9574 H   0  0  0  0  0  0  0  0  0  0  0  0
   33.5039   33.8340   52.3995 H   0  0  0  0  0  0  0  0  0  0  0  0
   33.9092   31.4806   51.8037 H   0  0  0  0  0  0  0  0  0  0  0  0
   35.0731   29.9924   53.3809 H   0  0  0  0  0  0  0  0  0  0  0  0
   35.8448   30.8548   55.5528 H   0  0  0  0  0  0  0  0  0  0  0  0
   35.4530   33.2089   56.1544 H   0  0  0  0  0  0  0  0  0  0  0  0
   36.2583   37.9355   54.4885 H   0  0  0  0  0  0  0  0  0  0  0  0
   34.8772   37.4070   53.4799 H   0  0  0  0  0  0  0  0  0  0  0  0
   34.1169   39.6168   53.1459 H   0  0  0  0  0  0  0  0  0  0  0  0
   35.8482   39.9990   53.4280 H   0  0  0  0  0  0  0  0  0  0  0  0
   33.8330   40.9772   55.0546 H   0  0  0  0  0  0  0  0  0  0  0  0
   35.4736   40.6173   55.6715 H   0  0  0  0  0  0  0  0  0  0  0  0
  1  2  1  0  0  0  0
  1 22  1  0  0  0  0
  1 23  1  0  0  0  0
  1 24  1  0  0  0  0
  2  3  2  0  0  0  0
  2  4  1  0  0  0  0
  4  5  1  0  0  0  0
  4 25  1  0  0  0  0
  5  9  2  0  0  0  0
  5  6  1  0  0  0  0
  6  7  1  0  0  0  0
  7 21  1  0  0  0  0
  7  8  2  0  0  0  0
  8  9  1  0  0  0  0
  8 19  1  0  0  0  0
  9 10  1  0  0  0  0
 10 11  2  0  0  0  0
 10 12  1  0  0  0  0
 12 13  1  0  0  0  0
 12 26  1  0  0  0  0
 13 18  2  0  0  0  0
 13 14  1  0  0  0  0
 14 15  2  0  0  0  0
 14 27  1  0  0  0  0
 15 16  1  0  0  0  0
 15 28  1  0  0  0  0
 16 17  2  0  0  0  0
 16 29  1  0  0  0  0
 17 18  1  0  0  0  0
 17 30  1  0  0  0  0
 18 31  1  0  0  0  0
 19 20  1  0  0  0  0
 19 32  1  0  0  0  0
 19 33  1  0  0  0  0
 20 21  1  0  0  0  0
 20 34  1  0  0  0  0
 20 35  1  0  0  0  0
 21 36  1  0  0  0  0
 21 37  1  0  0  0  0
M  END
$$$$
