ZINC000000036853      none
 OpenBabel11202420153D

 30 31  0  0  0  0  0  0  0  0999 V2000
   31.6903   37.8154   61.9121 C   0  0  0  0  0  0  0  0  0  0  0  0
   32.0969   37.4234   60.5148 C   0  0  0  0  0  0  0  0  0  0  0  0
   32.5518   38.3865   59.6351 C   0  0  0  0  0  0  0  0  0  0  0  0
   32.9256   38.0258   58.3500 C   0  0  0  0  0  0  0  0  0  0  0  0
   32.8409   36.6903   57.9500 C   0  0  0  0  0  0  0  0  0  0  0  0
   32.3889   35.7300   58.8417 C   0  0  0  0  0  0  0  0  0  0  0  0
   32.0132   36.0999   60.1186 C   0  0  0  0  0  0  0  0  0  0  0  0
   31.4320   34.8805   61.2499 S   0  0  0  0  0  0  0  0  0  0  0  0
   31.4597   33.4256   60.4595 N   0  0  0  0  0  0  0  0  0  0  0  0
   30.0643   35.1788   61.4938 O   0  0  0  0  0  0  0  0  0  0  0  0
   32.4049   34.7949   62.2822 O   0  0  0  0  0  0  0  0  0  0  0  0
   33.2780   36.6375   56.6286 N   0  0  0  0  0  0  0  0  0  0  0  0
   33.3586   35.4323   55.7997 C   0  0  0  0  0  0  0  0  0  0  0  0
   33.6133   37.8831   56.2426 C   0  0  0  0  0  0  0  0  0  0  0  0
   34.0349   38.1860   55.1420 O   0  0  0  0  0  0  0  0  0  0  0  0
   33.4117   38.7426   57.2591 N   0  0  0  0  0  0  0  0  0  0  0  0
   33.6606   40.1859   57.2237 C   0  0  0  0  0  0  0  0  0  0  0  0
   32.5546   37.7520   62.5732 H   0  0  0  0  0  0  0  0  0  0  0  0
   31.3110   38.8372   61.9069 H   0  0  0  0  0  0  0  0  0  0  0  0
   30.9114   37.1403   62.2666 H   0  0  0  0  0  0  0  0  0  0  0  0
   32.6163   39.4181   59.9481 H   0  0  0  0  0  0  0  0  0  0  0  0
   32.3268   34.6956   58.5376 H   0  0  0  0  0  0  0  0  0  0  0  0
   30.6393   32.9214   60.3429 H   0  0  0  0  0  0  0  0  0  0  0  0
   32.2956   33.0796   60.1095 H   0  0  0  0  0  0  0  0  0  0  0  0
   32.4166   35.2923   55.2695 H   0  0  0  0  0  0  0  0  0  0  0  0
   34.1688   35.5408   55.0786 H   0  0  0  0  0  0  0  0  0  0  0  0
   33.5504   34.5670   56.4342 H   0  0  0  0  0  0  0  0  0  0  0  0
   34.6844   40.3858   57.5398 H   0  0  0  0  0  0  0  0  0  0  0  0
   33.5152   40.5548   56.2084 H   0  0  0  0  0  0  0  0  0  0  0  0
   32.9675   40.6907   57.8966 H   0  0  0  0  0  0  0  0  0  0  0  0
  1  2  1  0  0  0  0
  1 18  1  0  0  0  0
  1 19  1  0  0  0  0
  1 20  1  0  0  0  0
  2  7  2  0  0  0  0
  2  3  1  0  0  0  0
  3  4  2  0  0  0  0
  3 21  1  0  0  0  0
  4 16  1  0  0  0  0
  4  5  1  0  0  0  0
  5  6  2  0  0  0  0
  5 12  1  0  0  0  0
  6  7  1  0  0  0  0
  6 22  1  0  0  0  0
  7  8  1  0  0  0  0
  8  9  1  0  0  0  0
  8 10  2  0  0  0  0
  8 11  2  0  0  0  0
  9 23  1  0  0  0  0
  9 24  1  0  0  0  0
 12 13  1  0  0  0  0
 12 14  1  0  0  0  0
 13 25  1  0  0  0  0
 13 26  1  0  0  0  0
 13 27  1  0  0  0  0
 14 15  2  0  0  0  0
 14 16  1  0  0  0  0
 16 17  1  0  0  0  0
 17 28  1  0  0  0  0
 17 29  1  0  0  0  0
 17 30  1  0  0  0  0
M  END
$$$$
