ZINC000000033572      none
 OpenBabel11202420153D

 32 34  0  0  0  0  0  0  0  0999 V2000
   31.3349   38.4559   62.7957 O   0  0  0  0  0  0  0  0  0  0  0  0
   31.5795   37.5142   62.0665 C   0  0  0  0  0  0  0  0  0  0  0  0
   31.8254   37.7317   60.7612 N   0  0  0  0  0  0  0  0  0  0  0  0
   31.8060   38.6355   60.4095 H   0  0  0  0  0  0  0  0  0  0  0  0
   32.0927   36.6971   59.9404 C   0  0  0  0  0  0  0  0  0  0  0  0
   32.3987   36.9724   58.2786 S   0  0  0  0  0  0  0  0  0  0  0  0
   32.1246   35.3807   60.4626 C   0  0  0  0  0  0  0  0  0  0  0  0
   31.8751   35.1884   61.7738 C   0  0  0  0  0  0  0  0  0  0  0  0
   31.6012   36.2699   62.5749 N   0  0  0  0  0  0  0  0  0  0  0  0
   31.3482   36.0791   63.9036 N   0  0  0  0  0  0  0  0  0  0  0  0
   29.9763   36.4847   64.2424 C   0  0  0  0  0  0  0  0  0  0  0  0
   29.7165   36.1989   65.7238 C   0  0  0  0  0  0  0  0  0  0  0  0
   30.6937   36.8814   66.5142 O   0  0  0  0  0  0  0  0  0  0  0  0
   32.0411   36.5100   66.2110 C   0  0  0  0  0  0  0  0  0  0  0  0
   32.3244   36.7988   64.7345 C   0  0  0  0  0  0  0  0  0  0  0  0
   31.9556   33.7151   62.1115 C   0  0  0  0  0  0  0  0  0  0  0  0
   31.8625   32.9870   60.7528 C   0  0  0  0  0  0  0  0  0  0  0  0
   32.3989   34.0593   59.7794 C   0  0  0  0  0  0  0  0  0  0  0  0
   29.8540   37.5506   64.0503 H   0  0  0  0  0  0  0  0  0  0  0  0
   29.2693   35.9211   63.6335 H   0  0  0  0  0  0  0  0  0  0  0  0
   29.7860   35.1264   65.9053 H   0  0  0  0  0  0  0  0  0  0  0  0
   28.7204   36.5499   65.9935 H   0  0  0  0  0  0  0  0  0  0  0  0
   32.1782   35.4465   66.4066 H   0  0  0  0  0  0  0  0  0  0  0  0
   32.7267   37.0858   66.8326 H   0  0  0  0  0  0  0  0  0  0  0  0
   33.3314   36.4645   64.4849 H   0  0  0  0  0  0  0  0  0  0  0  0
   32.2402   37.8698   64.5496 H   0  0  0  0  0  0  0  0  0  0  0  0
   32.9046   33.4894   62.5979 H   0  0  0  0  0  0  0  0  0  0  0  0
   31.1226   33.4277   62.7530 H   0  0  0  0  0  0  0  0  0  0  0  0
   30.8295   32.7299   60.5185 H   0  0  0  0  0  0  0  0  0  0  0  0
   32.4954   32.0996   60.7422 H   0  0  0  0  0  0  0  0  0  0  0  0
   31.8684   34.0072   58.8286 H   0  0  0  0  0  0  0  0  0  0  0  0
   33.4697   33.9291   59.6225 H   0  0  0  0  0  0  0  0  0  0  0  0
  1  2  2  0  0  0  0
  2  9  1  0  0  0  0
  2  3  1  0  0  0  0
  3  4  1  0  0  0  0
  3  5  1  0  0  0  0
  5  6  2  0  0  0  0
  5  7  1  0  0  0  0
  7 18  1  0  0  0  0
  7  8  2  0  0  0  0
  8  9  1  0  0  0  0
  8 16  1  0  0  0  0
  9 10  1  0  0  0  0
 10 15  1  0  0  0  0
 10 11  1  0  0  0  0
 11 12  1  0  0  0  0
 11 19  1  0  0  0  0
 11 20  1  0  0  0  0
 12 13  1  0  0  0  0
 12 21  1  0  0  0  0
 12 22  1  0  0  0  0
 13 14  1  0  0  0  0
 14 15  1  0  0  0  0
 14 23  1  0  0  0  0
 14 24  1  0  0  0  0
 15 25  1  0  0  0  0
 15 26  1  0  0  0  0
 16 17  1  0  0  0  0
 16 27  1  0  0  0  0
 16 28  1  0  0  0  0
 17 18  1  0  0  0  0
 17 29  1  0  0  0  0
 17 30  1  0  0  0  0
 18 31  1  0  0  0  0
 18 32  1  0  0  0  0
M  END
$$$$
