ZINC000000054519      none
 OpenBabel11202420153D

 35 37  0  0  0  0  0  0  0  0999 V2000
   33.8534   34.2049   53.6638 C   0  0  0  0  0  0  0  0  0  0  0  0
   32.7156   33.9376   54.6512 C   0  0  0  0  0  0  0  0  0  0  0  0
   32.5973   35.0572   55.5680 O   0  0  0  0  0  0  0  0  0  0  0  0
   32.7618   34.7941   56.8798 C   0  0  0  0  0  0  0  0  0  0  0  0
   32.9976   33.6600   57.2470 O   0  0  0  0  0  0  0  0  0  0  0  0
   32.6555   35.8818   57.8686 C   0  0  0  0  0  0  0  0  0  0  0  0
   32.2278   35.6329   59.0781 N   0  0  0  0  0  0  0  0  0  0  0  0
   32.1138   36.6267   60.0481 N   0  0  0  0  0  0  0  0  0  0  0  0
   31.6525   36.2717   61.3204 C   0  0  0  0  0  0  0  0  0  0  0  0
   32.4564   36.4778   62.4344 C   0  0  0  0  0  0  0  0  0  0  0  0
   31.9970   36.1318   63.6897 C   0  0  0  0  0  0  0  0  0  0  0  0
   30.7402   35.5694   63.8375 C   0  0  0  0  0  0  0  0  0  0  0  0
   30.2947   35.2268   65.0660 F   0  0  0  0  0  0  0  0  0  0  0  0
   29.9388   35.3581   62.7277 C   0  0  0  0  0  0  0  0  0  0  0  0
   30.3920   35.7075   61.4710 C   0  0  0  0  0  0  0  0  0  0  0  0
   32.4246   37.9101   59.8119 C   0  0  0  0  0  0  0  0  0  0  0  0
   32.3012   38.7372   60.6976 O   0  0  0  0  0  0  0  0  0  0  0  0
   32.8990   38.3101   58.5258 C   0  0  0  0  0  0  0  0  0  0  0  0
   33.2717   39.5524   58.0665 C   0  0  0  0  0  0  0  0  0  0  0  0
   33.2463   40.7057   58.8309 N   0  0  0  0  0  0  0  0  0  0  0  0
   33.7670   39.4920   56.4403 S   0  0  0  0  0  0  0  0  0  0  0  0
   33.4827   37.7670   56.3295 C   0  0  0  0  0  0  0  0  0  0  0  0
   33.0284   37.2737   57.4957 C   0  0  0  0  0  0  0  0  0  0  0  0
   33.9422   33.3644   52.9755 H   0  0  0  0  0  0  0  0  0  0  0  0
   33.6404   35.1140   53.1015 H   0  0  0  0  0  0  0  0  0  0  0  0
   34.7881   34.3268   54.2110 H   0  0  0  0  0  0  0  0  0  0  0  0
   32.9286   33.0284   55.2134 H   0  0  0  0  0  0  0  0  0  0  0  0
   31.7808   33.8157   54.1040 H   0  0  0  0  0  0  0  0  0  0  0  0
   33.4384   36.9123   62.3192 H   0  0  0  0  0  0  0  0  0  0  0  0
   32.6202   36.2956   64.5564 H   0  0  0  0  0  0  0  0  0  0  0  0
   28.9589   34.9194   62.8452 H   0  0  0  0  0  0  0  0  0  0  0  0
   29.7669   35.5426   60.6059 H   0  0  0  0  0  0  0  0  0  0  0  0
   33.5227   41.5508   58.4430 H   0  0  0  0  0  0  0  0  0  0  0  0
   32.9524   40.6690   59.7545 H   0  0  0  0  0  0  0  0  0  0  0  0
   33.6506   37.1765   55.4410 H   0  0  0  0  0  0  0  0  0  0  0  0
  1  2  1  0  0  0  0
  1 24  1  0  0  0  0
  1 25  1  0  0  0  0
  1 26  1  0  0  0  0
  2  3  1  0  0  0  0
  2 27  1  0  0  0  0
  2 28  1  0  0  0  0
  3  4  1  0  0  0  0
  4  5  2  0  0  0  0
  4  6  1  0  0  0  0
  6 23  1  0  0  0  0
  6  7  2  0  0  0  0
  7  8  1  0  0  0  0
  8  9  1  0  0  0  0
  8 16  1  0  0  0  0
  9 15  2  0  0  0  0
  9 10  1  0  0  0  0
 10 11  2  0  0  0  0
 10 29  1  0  0  0  0
 11 12  1  0  0  0  0
 11 30  1  0  0  0  0
 12 13  1  0  0  0  0
 12 14  2  0  0  0  0
 14 15  1  0  0  0  0
 14 31  1  0  0  0  0
 15 32  1  0  0  0  0
 16 17  2  0  0  0  0
 16 18  1  0  0  0  0
 18 23  1  0  0  0  0
 18 19  2  0  0  0  0
 19 20  1  0  0  0  0
 19 21  1  0  0  0  0
 20 33  1  0  0  0  0
 20 34  1  0  0  0  0
 21 22  1  0  0  0  0
 22 23  2  0  0  0  0
 22 35  1  0  0  0  0
M  END
$$$$
