ZINC000000027316      none
 OpenBabel11202420153D

 21 22  0  0  0  0  0  0  0  0999 V2000
   32.8593   35.6581   57.3155 C   0  0  0  0  0  0  0  0  0  0  0  0
   33.3049   36.9608   56.7028 C   0  0  0  0  0  0  0  0  0  0  0  0
   33.9213   36.9689   55.4676 C   0  0  0  0  0  0  0  0  0  0  0  0
   34.3307   38.1637   54.9041 C   0  0  0  0  0  0  0  0  0  0  0  0
   34.1249   39.3564   55.5740 C   0  0  0  0  0  0  0  0  0  0  0  0
   33.5092   39.3597   56.8092 C   0  0  0  0  0  0  0  0  0  0  0  0
   33.0904   38.1593   57.3791 C   0  0  0  0  0  0  0  0  0  0  0  0
   32.4225   38.1572   58.7051 C   0  0  0  0  0  0  0  0  0  0  0  0
   32.6142   39.0735   59.7554 C   0  0  0  0  0  0  0  0  0  0  0  0
   31.8191   38.6797   60.7224 N   0  0  0  0  0  0  0  0  0  0  0  0
   31.1857   37.6284   60.3404 N   0  0  0  0  0  0  0  0  0  0  0  0
   30.5378   37.1506   60.8816 H   0  0  0  0  0  0  0  0  0  0  0  0
   31.5195   37.2976   59.1433 N   0  0  0  0  0  0  0  0  0  0  0  0
   33.6675   35.2454   57.9195 H   0  0  0  0  0  0  0  0  0  0  0  0
   32.6009   34.9541   56.5244 H   0  0  0  0  0  0  0  0  0  0  0  0
   31.9872   35.8325   57.9458 H   0  0  0  0  0  0  0  0  0  0  0  0
   34.0838   36.0406   54.9401 H   0  0  0  0  0  0  0  0  0  0  0  0
   34.8126   38.1656   53.9376 H   0  0  0  0  0  0  0  0  0  0  0  0
   34.4461   40.2866   55.1294 H   0  0  0  0  0  0  0  0  0  0  0  0
   33.3483   40.2914   57.3310 H   0  0  0  0  0  0  0  0  0  0  0  0
   33.2782   39.9252   59.7639 H   0  0  0  0  0  0  0  0  0  0  0  0
  1  2  1  0  0  0  0
  1 14  1  0  0  0  0
  1 15  1  0  0  0  0
  1 16  1  0  0  0  0
  2  7  2  0  0  0  0
  2  3  1  0  0  0  0
  3  4  2  0  0  0  0
  3 17  1  0  0  0  0
  4  5  1  0  0  0  0
  4 18  1  0  0  0  0
  5  6  2  0  0  0  0
  5 19  1  0  0  0  0
  6  7  1  0  0  0  0
  6 20  1  0  0  0  0
  7  8  1  0  0  0  0
  8 13  2  0  0  0  0
  8  9  1  0  0  0  0
  9 10  2  0  0  0  0
  9 21  1  0  0  0  0
 10 11  1  0  0  0  0
 11 12  1  0  0  0  0
 11 13  1  0  0  0  0
M  END
$$$$
