ZINC000000039457      none
 OpenBabel11202420153D

 15 15  0  0  0  0  0  0  0  0999 V2000
   31.7729   38.2333   61.2152 C   0  0  0  0  0  0  0  0  0  0  0  0
   32.3437   39.1750   60.2489 N   0  0  0  0  0  0  0  0  0  0  0  0
   32.6683   38.7463   58.9738 C   0  0  0  0  0  0  0  0  0  0  0  0
   32.4562   37.4809   58.6440 N   0  0  0  0  0  0  0  0  0  0  0  0
   32.7559   37.0368   57.4313 C   0  0  0  0  0  0  0  0  0  0  0  0
   32.5370   35.7447   57.1027 F   0  0  0  0  0  0  0  0  0  0  0  0
   33.2979   37.9157   56.5037 C   0  0  0  0  0  0  0  0  0  0  0  0
   33.5121   39.2329   56.8855 C   0  0  0  0  0  0  0  0  0  0  0  0
   34.0428   40.1195   56.0153 F   0  0  0  0  0  0  0  0  0  0  0  0
   33.1839   39.6114   58.1130 N   0  0  0  0  0  0  0  0  0  0  0  0
   30.8363   37.8352   60.8249 H   0  0  0  0  0  0  0  0  0  0  0  0
   32.4737   37.4154   61.3828 H   0  0  0  0  0  0  0  0  0  0  0  0
   31.5842   38.7487   62.1569 H   0  0  0  0  0  0  0  0  0  0  0  0
   32.4941   40.0991   60.5029 H   0  0  0  0  0  0  0  0  0  0  0  0
   33.5515   37.5810   55.5087 H   0  0  0  0  0  0  0  0  0  0  0  0
  1  2  1  0  0  0  0
  1 11  1  0  0  0  0
  1 12  1  0  0  0  0
  1 13  1  0  0  0  0
  2  3  1  0  0  0  0
  2 14  1  0  0  0  0
  3 10  2  0  0  0  0
  3  4  1  0  0  0  0
  4  5  2  0  0  0  0
  5  6  1  0  0  0  0
  5  7  1  0  0  0  0
  7  8  2  0  0  0  0
  7 15  1  0  0  0  0
  8  9  1  0  0  0  0
  8 10  1  0  0  0  0
M  END
$$$$
