ZINC000000048767      none
 OpenBabel11202420153D

 39 40  0  0  1  0  0  0  0  0999 V2000
   34.8388   34.3887   55.1519 C   0  0  0  0  0  0  0  0  0  0  0  0
   34.1460   33.1983   55.8181 C   0  0  0  0  0  0  0  0  0  0  0  0
   32.9117   33.6427   56.4406 O   0  0  0  0  0  0  0  0  0  0  0  0
   32.9860   34.0526   57.7165 C   0  0  0  0  0  0  0  0  0  0  0  0
   34.0471   34.0403   58.2942 O   0  0  0  0  0  0  0  0  0  0  0  0
   31.7458   34.5281   58.4286 C   0  0  2  0  0  0  0  0  0  0  0  0
   31.9376   35.9549   58.8749 C   0  0  0  0  0  0  0  0  0  0  0  0
   32.8684   36.8578   58.1071 C   0  0  2  0  0  0  0  0  0  0  0  0
   33.8750   36.4399   58.1169 H   0  0  0  0  0  0  0  0  0  0  0  0
   32.8780   38.2487   58.7451 C   0  0  0  0  0  0  0  0  0  0  0  0
   33.5844   39.2235   57.8489 C   0  0  0  0  0  0  0  0  0  0  0  0
   33.8220   39.0140   56.5939 C   0  0  0  0  0  0  0  0  0  0  0  0
   33.4335   37.7628   55.8620 C   0  0  0  0  0  0  0  0  0  0  0  0
   32.3796   36.9915   56.6594 C   0  0  0  0  0  0  0  0  0  0  0  0
   31.3122   36.4115   59.9078 N   0  0  0  0  0  0  0  0  0  0  0  0
   30.4900   35.6389   60.6356 C   0  0  0  0  0  0  0  0  0  0  0  0
   29.4063   36.3736   61.7386 S   0  0  0  0  0  0  0  0  0  0  0  0
   30.5008   34.2996   60.5162 N   0  0  0  0  0  0  0  0  0  0  0  0
   31.4895   33.6456   59.6531 C   0  0  2  0  0  0  0  0  0  0  0  0
   31.1086   32.6761   59.3322 H   0  0  0  0  0  0  0  0  0  0  0  0
   32.7953   33.4518   60.4268 C   0  0  0  0  0  0  0  0  0  0  0  0
   35.7653   34.0550   54.6845 H   0  0  0  0  0  0  0  0  0  0  0  0
   34.1816   34.8134   54.3930 H   0  0  0  0  0  0  0  0  0  0  0  0
   35.0630   35.1457   55.9034 H   0  0  0  0  0  0  0  0  0  0  0  0
   34.8032   32.7735   56.5769 H   0  0  0  0  0  0  0  0  0  0  0  0
   33.9218   32.4412   55.0667 H   0  0  0  0  0  0  0  0  0  0  0  0
   30.8925   34.4696   57.7528 H   0  0  0  0  0  0  0  0  0  0  0  0
   31.8519   38.5810   58.9028 H   0  0  0  0  0  0  0  0  0  0  0  0
   33.3923   38.2024   59.7050 H   0  0  0  0  0  0  0  0  0  0  0  0
   33.9153   40.1578   58.2779 H   0  0  0  0  0  0  0  0  0  0  0  0
   34.3314   39.7879   56.0389 H   0  0  0  0  0  0  0  0  0  0  0  0
   34.3144   37.1355   55.7259 H   0  0  0  0  0  0  0  0  0  0  0  0
   33.0263   38.0270   54.8859 H   0  0  0  0  0  0  0  0  0  0  0  0
   32.2443   36.0008   56.2254 H   0  0  0  0  0  0  0  0  0  0  0  0
   31.4351   37.5352   56.6403 H   0  0  0  0  0  0  0  0  0  0  0  0
   29.8535   33.7650   61.0020 H   0  0  0  0  0  0  0  0  0  0  0  0
   32.5901   32.9286   61.3607 H   0  0  0  0  0  0  0  0  0  0  0  0
   33.2365   34.4245   60.6444 H   0  0  0  0  0  0  0  0  0  0  0  0
   33.4895   32.8643   59.8260 H   0  0  0  0  0  0  0  0  0  0  0  0
  1  2  1  0  0  0  0
  1 22  1  0  0  0  0
  1 23  1  0  0  0  0
  1 24  1  0  0  0  0
  2  3  1  0  0  0  0
  2 25  1  0  0  0  0
  2 26  1  0  0  0  0
  3  4  1  0  0  0  0
  4  5  2  0  0  0  0
  4  6  1  0  0  0  0
  6 19  1  0  0  0  0
  6  7  1  0  0  0  0
  6 27  1  6  0  0  0
  7  8  1  0  0  0  0
  7 15  2  0  0  0  0
  8  9  1  1  0  0  0
  8 14  1  0  0  0  0
  8 10  1  0  0  0  0
 10 11  1  0  0  0  0
 10 28  1  0  0  0  0
 10 29  1  0  0  0  0
 11 12  2  0  0  0  0
 11 30  1  0  0  0  0
 12 13  1  0  0  0  0
 12 31  1  0  0  0  0
 13 14  1  0  0  0  0
 13 32  1  0  0  0  0
 13 33  1  0  0  0  0
 14 34  1  0  0  0  0
 14 35  1  0  0  0  0
 15 16  1  0  0  0  0
 16 17  2  0  0  0  0
 16 18  1  0  0  0  0
 18 19  1  0  0  0  0
 18 36  1  0  0  0  0
 19 20  1  6  0  0  0
 19 21  1  0  0  0  0
 21 37  1  0  0  0  0
 21 38  1  0  0  0  0
 21 39  1  0  0  0  0
M  END
$$$$
