ZINC000000039226      none
 OpenBabel11202420153D

 40 43  0  0  0  0  0  0  0  0999 V2000
   28.6233   39.5267   62.8584 O   0  0  0  0  0  0  0  0  0  0  0  0
   29.4236   39.1225   63.6779 C   0  0  0  0  0  0  0  0  0  0  0  0
   30.4959   38.4139   63.2786 O   0  0  0  0  0  0  0  0  0  0  0  0
   30.6320   38.1706   61.8537 C   0  0  0  0  0  0  0  0  0  0  0  0
   31.9008   37.3559   61.5942 C   0  0  0  0  0  0  0  0  0  0  0  0
   31.6258   35.8863   61.7998 C   0  0  0  0  0  0  0  0  0  0  0  0
   31.2094   35.1673   62.9003 C   0  0  0  0  0  0  0  0  0  0  0  0
   31.0340   33.7982   62.8072 C   0  0  0  0  0  0  0  0  0  0  0  0
   31.2757   33.1476   61.6105 C   0  0  0  0  0  0  0  0  0  0  0  0
   31.6920   33.8589   60.5045 C   0  0  0  0  0  0  0  0  0  0  0  0
   31.8711   35.2409   60.5911 C   0  0  0  0  0  0  0  0  0  0  0  0
   32.3042   36.2355   59.5786 C   0  0  0  0  0  0  0  0  0  0  0  0
   32.6601   36.0864   58.2368 C   0  0  0  0  0  0  0  0  0  0  0  0
   33.0315   37.1890   57.4961 C   0  0  0  0  0  0  0  0  0  0  0  0
   33.0527   38.4443   58.0773 C   0  0  0  0  0  0  0  0  0  0  0  0
   32.7014   38.5994   59.4065 C   0  0  0  0  0  0  0  0  0  0  0  0
   32.3287   37.5025   60.1545 C   0  0  0  0  0  0  0  0  0  0  0  0
   29.2386   39.3828   64.9825 O   0  0  0  0  0  0  0  0  0  0  0  0
   30.0745   38.9516   65.7563 N   0  0  0  0  0  0  0  0  0  0  0  0
   31.1618   39.6478   66.1102 C   0  0  0  0  0  0  0  0  0  0  0  0
   31.4424   40.7602   65.7170 O   0  0  0  0  0  0  0  0  0  0  0  0
   31.9834   38.8282   67.0813 C   0  0  0  0  0  0  0  0  0  0  0  0
   31.1788   37.5199   67.2210 C   0  0  0  0  0  0  0  0  0  0  0  0
   29.9844   37.7399   66.3186 C   0  0  0  0  0  0  0  0  0  0  0  0
   29.0874   36.9448   66.1341 O   0  0  0  0  0  0  0  0  0  0  0  0
   30.6976   39.1228   61.3271 H   0  0  0  0  0  0  0  0  0  0  0  0
   29.7646   37.6163   61.4952 H   0  0  0  0  0  0  0  0  0  0  0  0
   32.6998   37.6847   62.2586 H   0  0  0  0  0  0  0  0  0  0  0  0
   31.0204   35.6733   63.8355 H   0  0  0  0  0  0  0  0  0  0  0  0
   30.7074   33.2365   63.6699 H   0  0  0  0  0  0  0  0  0  0  0  0
   31.1376   32.0787   61.5419 H   0  0  0  0  0  0  0  0  0  0  0  0
   31.8835   33.3465   59.5733 H   0  0  0  0  0  0  0  0  0  0  0  0
   32.6448   35.1083   57.7791 H   0  0  0  0  0  0  0  0  0  0  0  0
   33.3064   37.0721   56.4583 H   0  0  0  0  0  0  0  0  0  0  0  0
   33.3444   39.3043   57.4928 H   0  0  0  0  0  0  0  0  0  0  0  0
   32.7187   39.5802   59.8584 H   0  0  0  0  0  0  0  0  0  0  0  0
   32.0633   39.3340   68.0435 H   0  0  0  0  0  0  0  0  0  0  0  0
   32.9722   38.6284   66.6685 H   0  0  0  0  0  0  0  0  0  0  0  0
   30.8586   37.3747   68.2527 H   0  0  0  0  0  0  0  0  0  0  0  0
   31.7675   36.6691   66.8777 H   0  0  0  0  0  0  0  0  0  0  0  0
  1  2  2  0  0  0  0
  2  3  1  0  0  0  0
  2 18  1  0  0  0  0
  3  4  1  0  0  0  0
  4  5  1  0  0  0  0
  4 26  1  0  0  0  0
  4 27  1  0  0  0  0
  5 17  1  0  0  0  0
  5  6  1  0  0  0  0
  5 28  1  0  0  0  0
  6 11  2  0  0  0  0
  6  7  1  0  0  0  0
  7  8  2  0  0  0  0
  7 29  1  0  0  0  0
  8  9  1  0  0  0  0
  8 30  1  0  0  0  0
  9 10  2  0  0  0  0
  9 31  1  0  0  0  0
 10 11  1  0  0  0  0
 10 32  1  0  0  0  0
 11 12  1  0  0  0  0
 12 17  2  0  0  0  0
 12 13  1  0  0  0  0
 13 14  2  0  0  0  0
 13 33  1  0  0  0  0
 14 15  1  0  0  0  0
 14 34  1  0  0  0  0
 15 16  2  0  0  0  0
 15 35  1  0  0  0  0
 16 17  1  0  0  0  0
 16 36  1  0  0  0  0
 18 19  1  0  0  0  0
 19 24  1  0  0  0  0
 19 20  1  0  0  0  0
 20 21  2  0  0  0  0
 20 22  1  0  0  0  0
 22 23  1  0  0  0  0
 22 37  1  0  0  0  0
 22 38  1  0  0  0  0
 23 24  1  0  0  0  0
 23 39  1  0  0  0  0
 23 40  1  0  0  0  0
 24 25  2  0  0  0  0
M  END
$$$$
