ZINC000000057858      none
 OpenBabel11202420153D

 43 45  0  0  0  0  0  0  0  0999 V2000
   34.8187   36.8462   53.1383 C   0  0  0  0  0  0  0  0  0  0  0  0
   34.5543   38.0586   53.8470 O   0  0  0  0  0  0  0  0  0  0  0  0
   34.0361   37.9415   55.0986 C   0  0  0  0  0  0  0  0  0  0  0  0
   33.7557   39.0835   55.8435 C   0  0  0  0  0  0  0  0  0  0  0  0
   33.2310   38.9819   57.1132 C   0  0  0  0  0  0  0  0  0  0  0  0
   32.9764   37.7306   57.6629 C   0  0  0  0  0  0  0  0  0  0  0  0
   32.4569   37.6171   58.9036 O   0  0  0  0  0  0  0  0  0  0  0  0
   32.2019   36.4263   59.4707 C   0  0  0  0  0  0  0  0  0  0  0  0
   31.6401   36.3929   60.8332 C   0  0  0  0  0  0  0  0  0  0  0  0
   30.4030   35.7854   61.0664 C   0  0  0  0  0  0  0  0  0  0  0  0
   29.8767   35.7606   62.3400 C   0  0  0  0  0  0  0  0  0  0  0  0
   30.5775   36.3279   63.3952 C   0  0  0  0  0  0  0  0  0  0  0  0
   30.0568   36.2955   64.6498 O   0  0  0  0  0  0  0  0  0  0  0  0
   28.7856   35.6624   64.8084 C   0  0  0  0  0  0  0  0  0  0  0  0
   31.8142   36.9305   63.1712 C   0  0  0  0  0  0  0  0  0  0  0  0
   32.4977   37.4857   64.2076 O   0  0  0  0  0  0  0  0  0  0  0  0
   33.4046   36.6377   64.9151 C   0  0  0  0  0  0  0  0  0  0  0  0
   32.3456   36.9642   61.8963 C   0  0  0  0  0  0  0  0  0  0  0  0
   32.4415   35.2384   58.8227 C   0  0  0  0  0  0  0  0  0  0  0  0
   32.1634   34.0542   59.4329 O   0  0  0  0  0  0  0  0  0  0  0  0
   31.2162   33.1995   58.7895 C   0  0  0  0  0  0  0  0  0  0  0  0
   32.9813   35.2588   57.5130 C   0  0  0  0  0  0  0  0  0  0  0  0
   33.2077   34.2255   56.9043 O   0  0  0  0  0  0  0  0  0  0  0  0
   33.2587   36.5781   56.9130 C   0  0  0  0  0  0  0  0  0  0  0  0
   33.7898   36.6891   55.6283 C   0  0  0  0  0  0  0  0  0  0  0  0
   33.8920   36.2847   53.0203 H   0  0  0  0  0  0  0  0  0  0  0  0
   35.2285   37.0815   52.1562 H   0  0  0  0  0  0  0  0  0  0  0  0
   35.5374   36.2476   53.6981 H   0  0  0  0  0  0  0  0  0  0  0  0
   33.9509   40.0584   55.4218 H   0  0  0  0  0  0  0  0  0  0  0  0
   33.0173   39.8748   57.6820 H   0  0  0  0  0  0  0  0  0  0  0  0
   29.8576   35.3392   60.2479 H   0  0  0  0  0  0  0  0  0  0  0  0
   28.9188   35.2948   62.5180 H   0  0  0  0  0  0  0  0  0  0  0  0
   28.8563   34.6212   64.4936 H   0  0  0  0  0  0  0  0  0  0  0  0
   28.4862   35.7059   65.8556 H   0  0  0  0  0  0  0  0  0  0  0  0
   28.0445   36.1773   64.1970 H   0  0  0  0  0  0  0  0  0  0  0  0
   32.8579   35.7968   65.3418 H   0  0  0  0  0  0  0  0  0  0  0  0
   34.1650   36.2659   64.2283 H   0  0  0  0  0  0  0  0  0  0  0  0
   33.8826   37.2037   65.7146 H   0  0  0  0  0  0  0  0  0  0  0  0
   33.3040   37.4305   61.7215 H   0  0  0  0  0  0  0  0  0  0  0  0
   30.2603   33.7162   58.7034 H   0  0  0  0  0  0  0  0  0  0  0  0
   31.5789   32.9384   57.7954 H   0  0  0  0  0  0  0  0  0  0  0  0
   31.0867   32.2917   59.3790 H   0  0  0  0  0  0  0  0  0  0  0  0
   34.0072   35.8025   55.0514 H   0  0  0  0  0  0  0  0  0  0  0  0
  1  2  1  0  0  0  0
  1 26  1  0  0  0  0
  1 27  1  0  0  0  0
  1 28  1  0  0  0  0
  2  3  1  0  0  0  0
  3 25  2  0  0  0  0
  3  4  1  0  0  0  0
  4  5  2  0  0  0  0
  4 29  1  0  0  0  0
  5  6  1  0  0  0  0
  5 30  1  0  0  0  0
  6 24  2  0  0  0  0
  6  7  1  0  0  0  0
  7  8  1  0  0  0  0
  8  9  1  0  0  0  0
  8 19  2  0  0  0  0
  9 18  2  0  0  0  0
  9 10  1  0  0  0  0
 10 11  2  0  0  0  0
 10 31  1  0  0  0  0
 11 12  1  0  0  0  0
 11 32  1  0  0  0  0
 12 13  1  0  0  0  0
 12 15  2  0  0  0  0
 13 14  1  0  0  0  0
 14 33  1  0  0  0  0
 14 34  1  0  0  0  0
 14 35  1  0  0  0  0
 15 16  1  0  0  0  0
 15 18  1  0  0  0  0
 16 17  1  0  0  0  0
 17 36  1  0  0  0  0
 17 37  1  0  0  0  0
 17 38  1  0  0  0  0
 18 39  1  0  0  0  0
 19 20  1  0  0  0  0
 19 22  1  0  0  0  0
 20 21  1  0  0  0  0
 21 40  1  0  0  0  0
 21 41  1  0  0  0  0
 21 42  1  0  0  0  0
 22 23  2  0  0  0  0
 22 24  1  0  0  0  0
 24 25  1  0  0  0  0
 25 43  1  0  0  0  0
M  END
$$$$
