ZINC000000040707      none
 OpenBabel11202420153D

 31 32  0  0  0  0  0  0  0  0999 V2000
   32.2938   36.1048   64.8293 C   0  0  0  0  0  0  0  0  0  0  0  0
   31.5512   37.1388   64.0229 C   0  0  0  0  0  0  0  0  0  0  0  0
   30.3941   37.7062   64.5251 C   0  0  0  0  0  0  0  0  0  0  0  0
   29.7095   38.6548   63.7883 C   0  0  0  0  0  0  0  0  0  0  0  0
   30.1828   39.0437   62.5503 C   0  0  0  0  0  0  0  0  0  0  0  0
   31.3416   38.4724   62.0410 C   0  0  0  0  0  0  0  0  0  0  0  0
   31.8210   38.8603   60.7859 N   0  0  0  0  0  0  0  0  0  0  0  0
   32.5085   37.9840   60.0269 C   0  0  0  0  0  0  0  0  0  0  0  0
   32.7122   36.8550   60.4339 O   0  0  0  0  0  0  0  0  0  0  0  0
   33.0104   38.3901   58.7127 C   0  0  0  0  0  0  0  0  0  0  0  0
   33.3957   39.6697   58.3217 C   0  0  0  0  0  0  0  0  0  0  0  0
   33.3860   40.8300   59.0934 N   0  0  0  0  0  0  0  0  0  0  0  0
   33.7906   39.5403   56.9802 C   0  0  0  0  0  0  0  0  0  0  0  0
   33.6506   38.2866   56.6388 N   0  0  0  0  0  0  0  0  0  0  0  0
   33.1968   37.5865   57.6148 N   0  0  0  0  0  0  0  0  0  0  0  0
   32.9207   36.1487   57.5649 C   0  0  0  0  0  0  0  0  0  0  0  0
   32.0268   37.5192   62.7837 C   0  0  0  0  0  0  0  0  0  0  0  0
   33.0284   36.5987   65.4651 H   0  0  0  0  0  0  0  0  0  0  0  0
   31.5883   35.5529   65.4503 H   0  0  0  0  0  0  0  0  0  0  0  0
   32.8017   35.4147   64.1555 H   0  0  0  0  0  0  0  0  0  0  0  0
   30.0242   37.4071   65.4947 H   0  0  0  0  0  0  0  0  0  0  0  0
   28.8060   39.0957   64.1831 H   0  0  0  0  0  0  0  0  0  0  0  0
   29.6501   39.7880   61.9771 H   0  0  0  0  0  0  0  0  0  0  0  0
   31.6588   39.7599   60.4614 H   0  0  0  0  0  0  0  0  0  0  0  0
   33.0853   40.7969   60.0151 H   0  0  0  0  0  0  0  0  0  0  0  0
   33.6836   41.6699   58.7102 H   0  0  0  0  0  0  0  0  0  0  0  0
   34.1494   40.3358   56.3439 H   0  0  0  0  0  0  0  0  0  0  0  0
   31.8598   35.9890   57.3720 H   0  0  0  0  0  0  0  0  0  0  0  0
   33.5075   35.6934   56.7672 H   0  0  0  0  0  0  0  0  0  0  0  0
   33.1890   35.6938   58.5184 H   0  0  0  0  0  0  0  0  0  0  0  0
   32.9305   37.0758   62.3921 H   0  0  0  0  0  0  0  0  0  0  0  0
  1  2  1  0  0  0  0
  1 18  1  0  0  0  0
  1 19  1  0  0  0  0
  1 20  1  0  0  0  0
  2 17  2  0  0  0  0
  2  3  1  0  0  0  0
  3  4  2  0  0  0  0
  3 21  1  0  0  0  0
  4  5  1  0  0  0  0
  4 22  1  0  0  0  0
  5  6  2  0  0  0  0
  5 23  1  0  0  0  0
  6  7  1  0  0  0  0
  6 17  1  0  0  0  0
  7  8  1  0  0  0  0
  7 24  1  0  0  0  0
  8  9  2  0  0  0  0
  8 10  1  0  0  0  0
 10 15  1  0  0  0  0
 10 11  2  0  0  0  0
 11 12  1  0  0  0  0
 11 13  1  0  0  0  0
 12 25  1  0  0  0  0
 12 26  1  0  0  0  0
 13 14  2  0  0  0  0
 13 27  1  0  0  0  0
 14 15  1  0  0  0  0
 15 16  1  0  0  0  0
 16 28  1  0  0  0  0
 16 29  1  0  0  0  0
 16 30  1  0  0  0  0
 17 31  1  0  0  0  0
M  END
$$$$
