ZINC000000056381      none
 OpenBabel11202420153D

 28 30  0  0  0  0  0  0  0  0999 V2000
   30.5495   37.8537   59.8501 O   0  0  0  0  0  0  0  0  0  0  0  0
   31.3222   38.3032   60.6739 C   0  0  0  0  0  0  0  0  0  0  0  0
   32.5389   38.7375   60.2901 N   0  0  0  0  0  0  0  0  0  0  0  0
   32.9109   38.6760   58.9417 C   0  0  0  0  0  0  0  0  0  0  0  0
   33.2363   39.8394   58.2569 C   0  0  0  0  0  0  0  0  0  0  0  0
   33.6078   39.7786   56.9280 C   0  0  0  0  0  0  0  0  0  0  0  0
   33.6457   38.5579   56.2700 C   0  0  0  0  0  0  0  0  0  0  0  0
   33.3169   37.3921   56.9516 C   0  0  0  0  0  0  0  0  0  0  0  0
   32.9491   37.4529   58.2870 C   0  0  0  0  0  0  0  0  0  0  0  0
   33.3535   36.1846   56.3245 O   0  0  0  0  0  0  0  0  0  0  0  0
   33.3654   36.2026   54.8930 C   0  0  0  0  0  0  0  0  0  0  0  0
   34.3946   37.2443   54.4340 C   0  0  0  0  0  0  0  0  0  0  0  0
   34.0054   38.5190   54.9569 O   0  0  0  0  0  0  0  0  0  0  0  0
   30.9271   38.3735   62.0969 C   0  0  0  0  0  0  0  0  0  0  0  0
   29.8770   39.0517   62.5946 N   0  0  0  0  0  0  0  0  0  0  0  0
   29.8708   38.8627   63.8895 C   0  0  0  0  0  0  0  0  0  0  0  0
   30.9153   38.0692   64.1906 N   0  0  0  0  0  0  0  0  0  0  0  0
   31.1571   37.7632   65.0787 H   0  0  0  0  0  0  0  0  0  0  0  0
   31.5368   37.7798   63.0996 N   0  0  0  0  0  0  0  0  0  0  0  0
   33.1554   39.0962   60.9474 H   0  0  0  0  0  0  0  0  0  0  0  0
   33.2032   40.7919   58.7649 H   0  0  0  0  0  0  0  0  0  0  0  0
   33.8650   40.6841   56.3985 H   0  0  0  0  0  0  0  0  0  0  0  0
   32.6926   36.5481   58.8181 H   0  0  0  0  0  0  0  0  0  0  0  0
   33.6446   35.2189   54.5153 H   0  0  0  0  0  0  0  0  0  0  0  0
   32.3774   36.4731   54.5205 H   0  0  0  0  0  0  0  0  0  0  0  0
   35.3815   36.9776   54.8123 H   0  0  0  0  0  0  0  0  0  0  0  0
   34.4163   37.2847   53.3449 H   0  0  0  0  0  0  0  0  0  0  0  0
   29.1570   39.2702   64.5900 H   0  0  0  0  0  0  0  0  0  0  0  0
  1  2  2  0  0  0  0
  2  3  1  0  0  0  0
  2 14  1  0  0  0  0
  3  4  1  0  0  0  0
  3 20  1  0  0  0  0
  4  9  2  0  0  0  0
  4  5  1  0  0  0  0
  5  6  2  0  0  0  0
  5 21  1  0  0  0  0
  6  7  1  0  0  0  0
  6 22  1  0  0  0  0
  7 13  1  0  0  0  0
  7  8  2  0  0  0  0
  8  9  1  0  0  0  0
  8 10  1  0  0  0  0
  9 23  1  0  0  0  0
 10 11  1  0  0  0  0
 11 12  1  0  0  0  0
 11 24  1  0  0  0  0
 11 25  1  0  0  0  0
 12 13  1  0  0  0  0
 12 26  1  0  0  0  0
 12 27  1  0  0  0  0
 14 19  2  0  0  0  0
 14 15  1  0  0  0  0
 15 16  2  0  0  0  0
 16 17  1  0  0  0  0
 16 28  1  0  0  0  0
 17 18  1  0  0  0  0
 17 19  1  0  0  0  0
M  END
$$$$
