ZINC000000043891      none
 OpenBabel11202420153D

 38 41  0  0  0  0  0  0  0  0999 V2000
   33.4801   40.3958   58.8225 C   0  0  0  0  0  0  0  0  0  0  0  0
   33.3310   39.0212   58.3381 N   0  0  0  0  0  0  0  0  0  0  0  0
   32.8219   38.0544   59.1301 C   0  0  0  0  0  0  0  0  0  0  0  0
   32.4893   38.3566   60.2599 O   0  0  0  0  0  0  0  0  0  0  0  0
   32.6605   36.7813   58.7446 N   0  0  0  0  0  0  0  0  0  0  0  0
   32.1200   35.8650   59.6568 C   0  0  0  0  0  0  0  0  0  0  0  0
   31.3714   34.7885   59.2005 C   0  0  0  0  0  0  0  0  0  0  0  0
   30.8450   33.8836   60.1016 C   0  0  0  0  0  0  0  0  0  0  0  0
   31.0529   34.0561   61.4581 C   0  0  0  0  0  0  0  0  0  0  0  0
   31.7931   35.1303   61.9157 C   0  0  0  0  0  0  0  0  0  0  0  0
   32.3271   36.0352   61.0191 C   0  0  0  0  0  0  0  0  0  0  0  0
   33.0007   36.3452   57.5081 C   0  0  0  0  0  0  0  0  0  0  0  0
   32.8504   35.1862   57.1673 O   0  0  0  0  0  0  0  0  0  0  0  0
   33.5637   37.3645   56.5977 C   0  0  0  0  0  0  0  0  0  0  0  0
   34.0085   37.1859   55.2328 C   0  0  0  0  0  0  0  0  0  0  0  0
   34.4674   38.3204   54.6898 C   0  0  0  0  0  0  0  0  0  0  0  0
   34.3705   39.6499   55.8343 S   0  0  0  0  0  0  0  0  0  0  0  0
   33.7091   38.6698   57.0475 C   0  0  0  0  0  0  0  0  0  0  0  0
   34.9991   38.4374   53.2740 C   0  0  0  0  0  0  0  0  0  0  0  0
   35.3110   37.0346   52.7464 C   0  0  0  0  0  0  0  0  0  0  0  0
   34.0980   36.1310   52.9880 C   0  0  0  0  0  0  0  0  0  0  0  0
   33.9695   35.8591   54.4896 C   0  0  0  0  0  0  0  0  0  0  0  0
   32.5718   40.9579   58.6055 H   0  0  0  0  0  0  0  0  0  0  0  0
   33.6524   40.3851   59.8988 H   0  0  0  0  0  0  0  0  0  0  0  0
   34.3269   40.8670   58.3236 H   0  0  0  0  0  0  0  0  0  0  0  0
   31.2048   34.6560   58.1416 H   0  0  0  0  0  0  0  0  0  0  0  0
   30.2667   33.0432   59.7468 H   0  0  0  0  0  0  0  0  0  0  0  0
   30.6371   33.3491   62.1606 H   0  0  0  0  0  0  0  0  0  0  0  0
   31.9538   35.2621   62.9754 H   0  0  0  0  0  0  0  0  0  0  0  0
   32.9055   36.8739   61.3772 H   0  0  0  0  0  0  0  0  0  0  0  0
   34.2479   38.9077   52.6395 H   0  0  0  0  0  0  0  0  0  0  0  0
   35.9085   39.0384   53.2738 H   0  0  0  0  0  0  0  0  0  0  0  0
   35.5215   37.0850   51.6781 H   0  0  0  0  0  0  0  0  0  0  0  0
   36.1779   36.6321   53.2704 H   0  0  0  0  0  0  0  0  0  0  0  0
   33.1971   36.6260   52.6256 H   0  0  0  0  0  0  0  0  0  0  0  0
   34.2349   35.1882   52.4584 H   0  0  0  0  0  0  0  0  0  0  0  0
   34.7954   35.2300   54.8218 H   0  0  0  0  0  0  0  0  0  0  0  0
   33.0228   35.3569   54.6884 H   0  0  0  0  0  0  0  0  0  0  0  0
  1  2  1  0  0  0  0
  1 23  1  0  0  0  0
  1 24  1  0  0  0  0
  1 25  1  0  0  0  0
  2 18  1  0  0  0  0
  2  3  1  0  0  0  0
  3  4  2  0  0  0  0
  3  5  1  0  0  0  0
  5  6  1  0  0  0  0
  5 12  1  0  0  0  0
  6 11  2  0  0  0  0
  6  7  1  0  0  0  0
  7  8  2  0  0  0  0
  7 26  1  0  0  0  0
  8  9  1  0  0  0  0
  8 27  1  0  0  0  0
  9 10  2  0  0  0  0
  9 28  1  0  0  0  0
 10 11  1  0  0  0  0
 10 29  1  0  0  0  0
 11 30  1  0  0  0  0
 12 13  2  0  0  0  0
 12 14  1  0  0  0  0
 14 18  2  0  0  0  0
 14 15  1  0  0  0  0
 15 22  1  0  0  0  0
 15 16  2  0  0  0  0
 16 17  1  0  0  0  0
 16 19  1  0  0  0  0
 17 18  1  0  0  0  0
 19 20  1  0  0  0  0
 19 31  1  0  0  0  0
 19 32  1  0  0  0  0
 20 21  1  0  0  0  0
 20 33  1  0  0  0  0
 20 34  1  0  0  0  0
 21 22  1  0  0  0  0
 21 35  1  0  0  0  0
 21 36  1  0  0  0  0
 22 37  1  0  0  0  0
 22 38  1  0  0  0  0
M  END
$$$$
