ZINC000000037958      none
 OpenBabel11202420153D

 24 25  0  0  0  0  0  0  0  0999 V2000
   29.6581   37.1987   60.4634 O   0  0  0  0  0  0  0  0  0  0  0  0
   30.5076   37.2555   61.3384 C   0  0  0  0  0  0  0  0  0  0  0  0
   30.2169   37.8697   62.5755 C   0  0  0  0  0  0  0  0  0  0  0  0
   28.6549   38.5589   62.8899 Cl  0  0  0  0  0  0  0  0  0  0  0  0
   31.2095   37.9085   63.5172 C   0  0  0  0  0  0  0  0  0  0  0  0
   30.9413   38.6493   65.0641 Cl  0  0  0  0  0  0  0  0  0  0  0  0
   32.4521   37.3325   63.1990 C   0  0  0  0  0  0  0  0  0  0  0  0
   32.6445   36.7782   62.0347 N   0  0  0  0  0  0  0  0  0  0  0  0
   31.7302   36.7290   61.1350 N   0  0  0  0  0  0  0  0  0  0  0  0
   32.0265   36.0884   59.8511 C   0  0  0  0  0  0  0  0  0  0  0  0
   32.5779   37.1134   58.8938 C   0  0  0  0  0  0  0  0  0  0  0  0
   32.9322   36.7399   57.6108 C   0  0  0  0  0  0  0  0  0  0  0  0
   33.4380   37.6791   56.7320 C   0  0  0  0  0  0  0  0  0  0  0  0
   33.5944   38.9933   57.1386 C   0  0  0  0  0  0  0  0  0  0  0  0
   34.0939   39.9111   56.2822 F   0  0  0  0  0  0  0  0  0  0  0  0
   33.2338   39.3674   58.4221 C   0  0  0  0  0  0  0  0  0  0  0  0
   32.7287   38.4264   59.2992 C   0  0  0  0  0  0  0  0  0  0  0  0
   33.2525   37.3493   63.9238 H   0  0  0  0  0  0  0  0  0  0  0  0
   31.1125   35.6610   59.4388 H   0  0  0  0  0  0  0  0  0  0  0  0
   32.7621   35.2981   60.0006 H   0  0  0  0  0  0  0  0  0  0  0  0
   32.8140   35.7139   57.2952 H   0  0  0  0  0  0  0  0  0  0  0  0
   33.7154   37.3869   55.7299 H   0  0  0  0  0  0  0  0  0  0  0  0
   33.3516   40.3931   58.7390 H   0  0  0  0  0  0  0  0  0  0  0  0
   32.4519   38.7169   60.3019 H   0  0  0  0  0  0  0  0  0  0  0  0
  1  2  2  0  0  0  0
  2  9  1  0  0  0  0
  2  3  1  0  0  0  0
  3  4  1  0  0  0  0
  3  5  2  0  0  0  0
  5  6  1  0  0  0  0
  5  7  1  0  0  0  0
  7  8  2  0  0  0  0
  7 18  1  0  0  0  0
  8  9  1  0  0  0  0
  9 10  1  0  0  0  0
 10 11  1  0  0  0  0
 10 19  1  0  0  0  0
 10 20  1  0  0  0  0
 11 17  2  0  0  0  0
 11 12  1  0  0  0  0
 12 13  2  0  0  0  0
 12 21  1  0  0  0  0
 13 14  1  0  0  0  0
 13 22  1  0  0  0  0
 14 15  1  0  0  0  0
 14 16  2  0  0  0  0
 16 17  1  0  0  0  0
 16 23  1  0  0  0  0
 17 24  1  0  0  0  0
M  END
$$$$
