ZINC000000027063      none
 OpenBabel11202420153D

 27 28  0  0  0  0  0  0  0  0999 V2000
   31.7651   36.1414   60.4589 C   0  0  0  0  0  0  0  0  0  0  0  0
   32.2398   37.5401   60.1601 C   0  0  0  0  0  0  0  0  0  0  0  0
   32.2101   38.3911   61.0288 O   0  0  0  0  0  0  0  0  0  0  0  0
   32.7141   37.8594   58.8853 C   0  0  0  0  0  0  0  0  0  0  0  0
   32.8215   36.7625   57.5108 S   0  0  0  0  0  0  0  0  0  0  0  0
   33.4658   38.0131   56.5414 C   0  0  0  0  0  0  0  0  0  0  0  0
   33.8260   37.8706   55.2203 N   0  0  0  0  0  0  0  0  0  0  0  0
   33.6787   36.6341   54.5849 C   0  0  0  0  0  0  0  0  0  0  0  0
   34.7184   35.7132   54.6046 C   0  0  0  0  0  0  0  0  0  0  0  0
   34.5698   34.4928   53.9756 C   0  0  0  0  0  0  0  0  0  0  0  0
   33.3876   34.1871   53.3266 C   0  0  0  0  0  0  0  0  0  0  0  0
   32.3525   35.1038   53.3003 C   0  0  0  0  0  0  0  0  0  0  0  0
   32.4925   36.3238   53.9322 C   0  0  0  0  0  0  0  0  0  0  0  0
   33.5651   39.1210   57.2189 N   0  0  0  0  0  0  0  0  0  0  0  0
   33.1793   39.0975   58.4723 C   0  0  0  0  0  0  0  0  0  0  0  0
   33.2322   40.2034   59.3029 N   0  0  0  0  0  0  0  0  0  0  0  0
   32.6019   35.5430   60.8194 H   0  0  0  0  0  0  0  0  0  0  0  0
   30.9881   36.1767   61.2224 H   0  0  0  0  0  0  0  0  0  0  0  0
   31.3622   35.6926   59.5509 H   0  0  0  0  0  0  0  0  0  0  0  0
   34.1821   38.6282   54.7302 H   0  0  0  0  0  0  0  0  0  0  0  0
   35.6420   35.9513   55.1115 H   0  0  0  0  0  0  0  0  0  0  0  0
   35.3777   33.7762   53.9906 H   0  0  0  0  0  0  0  0  0  0  0  0
   33.2739   33.2320   52.8355 H   0  0  0  0  0  0  0  0  0  0  0  0
   31.4322   34.8636   52.7889 H   0  0  0  0  0  0  0  0  0  0  0  0
   31.6823   37.0377   53.9149 H   0  0  0  0  0  0  0  0  0  0  0  0
   33.5667   41.0487   58.9645 H   0  0  0  0  0  0  0  0  0  0  0  0
   32.9346   40.1333   60.2235 H   0  0  0  0  0  0  0  0  0  0  0  0
  1  2  1  0  0  0  0
  1 17  1  0  0  0  0
  1 18  1  0  0  0  0
  1 19  1  0  0  0  0
  2  3  2  0  0  0  0
  2  4  1  0  0  0  0
  4 15  2  0  0  0  0
  4  5  1  0  0  0  0
  5  6  1  0  0  0  0
  6  7  1  0  0  0  0
  6 14  2  0  0  0  0
  7  8  1  0  0  0  0
  7 20  1  0  0  0  0
  8 13  2  0  0  0  0
  8  9  1  0  0  0  0
  9 10  2  0  0  0  0
  9 21  1  0  0  0  0
 10 11  1  0  0  0  0
 10 22  1  0  0  0  0
 11 12  2  0  0  0  0
 11 23  1  0  0  0  0
 12 13  1  0  0  0  0
 12 24  1  0  0  0  0
 13 25  1  0  0  0  0
 14 15  1  0  0  0  0
 15 16  1  0  0  0  0
 16 26  1  0  0  0  0
 16 27  1  0  0  0  0
M  END
$$$$
