ZINC000000047736      none
 OpenBabel11202420153D

 40 42  0  0  0  0  0  0  0  0999 V2000
   28.1054   40.0922   67.6569 C   0  0  0  0  0  0  0  0  0  0  0  0
   29.4285   39.5597   67.5688 O   0  0  0  0  0  0  0  0  0  0  0  0
   29.8976   39.2745   66.3248 C   0  0  0  0  0  0  0  0  0  0  0  0
   31.1745   38.7554   66.1676 C   0  0  0  0  0  0  0  0  0  0  0  0
   31.6516   38.4661   64.9044 C   0  0  0  0  0  0  0  0  0  0  0  0
   30.8531   38.6947   63.7918 C   0  0  0  0  0  0  0  0  0  0  0  0
   31.3368   38.4012   62.5099 N   0  0  0  0  0  0  0  0  0  0  0  0
   30.4820   38.0337   61.5349 C   0  0  0  0  0  0  0  0  0  0  0  0
   29.2940   37.9569   61.7672 O   0  0  0  0  0  0  0  0  0  0  0  0
   31.0022   37.7181   60.1562 C   0  0  0  0  0  0  0  0  0  0  0  0
   31.9917   36.5541   60.2386 C   0  0  0  0  0  0  0  0  0  0  0  0
   32.4975   36.2472   58.8984 N   0  0  0  0  0  0  0  0  0  0  0  0
   32.8859   35.0248   58.4928 C   0  0  0  0  0  0  0  0  0  0  0  0
   32.8724   34.0161   59.1690 O   0  0  0  0  0  0  0  0  0  0  0  0
   33.3315   35.1148   57.0863 C   0  0  0  0  0  0  0  0  0  0  0  0
   33.8242   34.2024   56.1671 C   0  0  0  0  0  0  0  0  0  0  0  0
   34.1619   34.6265   54.8913 C   0  0  0  0  0  0  0  0  0  0  0  0
   34.0012   35.9503   54.5275 C   0  0  0  0  0  0  0  0  0  0  0  0
   33.5093   36.8741   55.4364 C   0  0  0  0  0  0  0  0  0  0  0  0
   33.1721   36.4655   56.7168 C   0  0  0  0  0  0  0  0  0  0  0  0
   32.6351   37.1509   57.9113 C   0  0  0  0  0  0  0  0  0  0  0  0
   32.3641   38.3322   57.9890 O   0  0  0  0  0  0  0  0  0  0  0  0
   29.5775   39.2197   63.9495 C   0  0  0  0  0  0  0  0  0  0  0  0
   29.0994   39.5032   65.2136 C   0  0  0  0  0  0  0  0  0  0  0  0
   28.0532   41.0292   67.1022 H   0  0  0  0  0  0  0  0  0  0  0  0
   27.3979   39.3794   67.2333 H   0  0  0  0  0  0  0  0  0  0  0  0
   27.8559   40.2743   68.7021 H   0  0  0  0  0  0  0  0  0  0  0  0
   31.7955   38.5779   67.0331 H   0  0  0  0  0  0  0  0  0  0  0  0
   32.6457   38.0623   64.7821 H   0  0  0  0  0  0  0  0  0  0  0  0
   32.2869   38.4626   62.3242 H   0  0  0  0  0  0  0  0  0  0  0  0
   31.5056   38.5947   59.7484 H   0  0  0  0  0  0  0  0  0  0  0  0
   30.1702   37.4426   59.5081 H   0  0  0  0  0  0  0  0  0  0  0  0
   31.4884   35.6774   60.6464 H   0  0  0  0  0  0  0  0  0  0  0  0
   32.8237   36.8297   60.8867 H   0  0  0  0  0  0  0  0  0  0  0  0
   33.9486   33.1662   56.4448 H   0  0  0  0  0  0  0  0  0  0  0  0
   34.5501   33.9170   54.1757 H   0  0  0  0  0  0  0  0  0  0  0  0
   34.2642   36.2679   53.5293 H   0  0  0  0  0  0  0  0  0  0  0  0
   33.3896   37.9079   55.1478 H   0  0  0  0  0  0  0  0  0  0  0  0
   28.9578   39.4022   63.0841 H   0  0  0  0  0  0  0  0  0  0  0  0
   28.1054   39.9073   65.3368 H   0  0  0  0  0  0  0  0  0  0  0  0
  1  2  1  0  0  0  0
  1 25  1  0  0  0  0
  1 26  1  0  0  0  0
  1 27  1  0  0  0  0
  2  3  1  0  0  0  0
  3 24  2  0  0  0  0
  3  4  1  0  0  0  0
  4  5  2  0  0  0  0
  4 28  1  0  0  0  0
  5  6  1  0  0  0  0
  5 29  1  0  0  0  0
  6  7  1  0  0  0  0
  6 23  2  0  0  0  0
  7  8  1  0  0  0  0
  7 30  1  0  0  0  0
  8  9  2  0  0  0  0
  8 10  1  0  0  0  0
 10 11  1  0  0  0  0
 10 31  1  0  0  0  0
 10 32  1  0  0  0  0
 11 12  1  0  0  0  0
 11 33  1  0  0  0  0
 11 34  1  0  0  0  0
 12 21  1  0  0  0  0
 12 13  1  0  0  0  0
 13 14  2  0  0  0  0
 13 15  1  0  0  0  0
 15 20  2  0  0  0  0
 15 16  1  0  0  0  0
 16 17  2  0  0  0  0
 16 35  1  0  0  0  0
 17 18  1  0  0  0  0
 17 36  1  0  0  0  0
 18 19  2  0  0  0  0
 18 37  1  0  0  0  0
 19 20  1  0  0  0  0
 19 38  1  0  0  0  0
 20 21  1  0  0  0  0
 21 22  2  0  0  0  0
 23 24  1  0  0  0  0
 23 39  1  0  0  0  0
 24 40  1  0  0  0  0
M  END
$$$$
