ZINC000000008695      none
 OpenBabel11202420153D

 28 30  0  0  0  0  0  0  0  0999 V2000
   35.1847   30.9873   53.1314 N   0  0  0  0  0  0  0  0  0  0  0  0
   34.7365   31.9514   54.0402 C   0  0  0  0  0  0  0  0  0  0  0  0
   35.1155   31.8775   55.3745 C   0  0  0  0  0  0  0  0  0  0  0  0
   34.6689   32.8261   56.2729 C   0  0  0  0  0  0  0  0  0  0  0  0
   33.8503   33.8605   55.8409 C   0  0  0  0  0  0  0  0  0  0  0  0
   33.4016   34.8285   56.7537 N   0  0  0  0  0  0  0  0  0  0  0  0
   33.6633   36.1445   56.6574 C   0  0  0  0  0  0  0  0  0  0  0  0
   34.3151   36.6754   55.7809 O   0  0  0  0  0  0  0  0  0  0  0  0
   33.0226   36.8366   57.7956 C   0  0  0  0  0  0  0  0  0  0  0  0
   32.9494   38.1573   58.2081 C   0  0  0  0  0  0  0  0  0  0  0  0
   32.2517   38.4792   59.3620 C   0  0  0  0  0  0  0  0  0  0  0  0
   31.6284   37.4923   60.1023 C   0  0  0  0  0  0  0  0  0  0  0  0
   31.6927   36.1668   59.7014 C   0  0  0  0  0  0  0  0  0  0  0  0
   32.3868   35.8301   58.5505 C   0  0  0  0  0  0  0  0  0  0  0  0
   32.6584   34.5612   57.8426 C   0  0  0  0  0  0  0  0  0  0  0  0
   32.2751   33.4614   58.1867 O   0  0  0  0  0  0  0  0  0  0  0  0
   33.4755   33.9385   54.5056 C   0  0  0  0  0  0  0  0  0  0  0  0
   32.4521   35.2325   53.9654 Cl  0  0  0  0  0  0  0  0  0  0  0  0
   33.9175   32.9860   53.6075 C   0  0  0  0  0  0  0  0  0  0  0  0
   34.9235   31.0414   52.1988 H   0  0  0  0  0  0  0  0  0  0  0  0
   35.7566   30.2646   53.4336 H   0  0  0  0  0  0  0  0  0  0  0  0
   35.7562   31.0755   55.7102 H   0  0  0  0  0  0  0  0  0  0  0  0
   34.9602   32.7658   57.3111 H   0  0  0  0  0  0  0  0  0  0  0  0
   33.4345   38.9326   57.6336 H   0  0  0  0  0  0  0  0  0  0  0  0
   32.1945   39.5083   59.6845 H   0  0  0  0  0  0  0  0  0  0  0  0
   31.0872   37.7557   60.9990 H   0  0  0  0  0  0  0  0  0  0  0  0
   31.2034   35.3999   60.2836 H   0  0  0  0  0  0  0  0  0  0  0  0
   33.6259   33.0461   52.5692 H   0  0  0  0  0  0  0  0  0  0  0  0
  1  2  1  0  0  0  0
  1 20  1  0  0  0  0
  1 21  1  0  0  0  0
  2 19  2  0  0  0  0
  2  3  1  0  0  0  0
  3  4  2  0  0  0  0
  3 22  1  0  0  0  0
  4  5  1  0  0  0  0
  4 23  1  0  0  0  0
  5  6  1  0  0  0  0
  5 17  2  0  0  0  0
  6 15  1  0  0  0  0
  6  7  1  0  0  0  0
  7  8  2  0  0  0  0
  7  9  1  0  0  0  0
  9 14  2  0  0  0  0
  9 10  1  0  0  0  0
 10 11  2  0  0  0  0
 10 24  1  0  0  0  0
 11 12  1  0  0  0  0
 11 25  1  0  0  0  0
 12 13  2  0  0  0  0
 12 26  1  0  0  0  0
 13 14  1  0  0  0  0
 13 27  1  0  0  0  0
 14 15  1  0  0  0  0
 15 16  2  0  0  0  0
 17 18  1  0  0  0  0
 17 19  1  0  0  0  0
 19 28  1  0  0  0  0
M  END
$$$$
