ZINC000000004241      none
 OpenBabel11202420153D

 45 47  0  0  1  0  0  0  0  0999 V2000
   31.7453   33.8506   59.7763 O   0  0  0  0  0  0  0  0  0  0  0  0
   32.1573   34.8660   59.2671 C   0  0  0  0  0  0  0  0  0  0  0  0
   31.9065   36.0536   59.8399 O   0  0  0  0  0  0  0  0  0  0  0  0
   31.1344   36.0425   61.0696 C   0  0  0  0  0  0  0  0  0  0  0  0
   30.3305   37.3397   61.1789 C   0  0  0  0  0  0  0  0  0  0  0  0
   29.5171   37.3280   62.4746 C   0  0  0  0  0  0  0  0  0  0  0  0
   30.4645   37.2128   63.6705 C   0  0  0  0  0  0  0  0  0  0  0  0
   31.2684   35.9156   63.5613 C   0  0  0  0  0  0  0  0  0  0  0  0
   32.0818   35.9273   62.2656 C   0  0  0  0  0  0  0  0  0  0  0  0
   32.9472   34.7993   57.9855 C   0  0  1  0  0  0  0  0  0  0  0  0
   33.2845   35.7564   57.5875 H   0  0  0  0  0  0  0  0  0  0  0  0
   33.7836   33.6596   57.7772 O   0  0  0  0  0  0  0  0  0  0  0  0
   32.5923   33.6968   56.9856 C   0  0  2  0  0  0  0  0  0  0  0  0
   31.7854   33.0130   57.2490 H   0  0  0  0  0  0  0  0  0  0  0  0
   32.7329   34.0079   55.5179 C   0  0  0  0  0  0  0  0  0  0  0  0
   33.0019   33.1265   54.7366 O   0  0  0  0  0  0  0  0  0  0  0  0
   32.5593   35.2643   55.0786 O   0  0  0  0  0  0  0  0  0  0  0  0
   33.6841   35.8886   54.4051 C   0  0  0  0  0  0  0  0  0  0  0  0
   34.1012   37.1470   55.1688 C   0  0  0  0  0  0  0  0  0  0  0  0
   35.2865   37.8048   54.4592 C   0  0  0  0  0  0  0  0  0  0  0  0
   34.8807   38.1842   53.0336 C   0  0  0  0  0  0  0  0  0  0  0  0
   34.4636   36.9258   52.2699 C   0  0  0  0  0  0  0  0  0  0  0  0
   33.2784   36.2681   52.9796 C   0  0  0  0  0  0  0  0  0  0  0  0
   30.4527   35.1920   61.0629 H   0  0  0  0  0  0  0  0  0  0  0  0
   31.0123   38.1902   61.1855 H   0  0  0  0  0  0  0  0  0  0  0  0
   29.6557   37.4217   60.3268 H   0  0  0  0  0  0  0  0  0  0  0  0
   28.8354   36.4775   62.4679 H   0  0  0  0  0  0  0  0  0  0  0  0
   28.9444   38.2521   62.5525 H   0  0  0  0  0  0  0  0  0  0  0  0
   29.8848   37.2044   64.5936 H   0  0  0  0  0  0  0  0  0  0  0  0
   31.1461   38.0632   63.6773 H   0  0  0  0  0  0  0  0  0  0  0  0
   30.5865   35.0652   63.5546 H   0  0  0  0  0  0  0  0  0  0  0  0
   31.9432   35.8335   64.4132 H   0  0  0  0  0  0  0  0  0  0  0  0
   32.6545   35.0032   62.1877 H   0  0  0  0  0  0  0  0  0  0  0  0
   32.7636   36.7778   62.2722 H   0  0  0  0  0  0  0  0  0  0  0  0
   34.5204   35.1902   54.3712 H   0  0  0  0  0  0  0  0  0  0  0  0
   33.2651   37.8453   55.2027 H   0  0  0  0  0  0  0  0  0  0  0  0
   34.3903   36.8767   56.1844 H   0  0  0  0  0  0  0  0  0  0  0  0
   36.1228   37.1064   54.4253 H   0  0  0  0  0  0  0  0  0  0  0  0
   35.5836   38.7014   55.0031 H   0  0  0  0  0  0  0  0  0  0  0  0
   35.7252   38.6528   52.5281 H   0  0  0  0  0  0  0  0  0  0  0  0
   34.0446   38.8826   53.0675 H   0  0  0  0  0  0  0  0  0  0  0  0
   35.2999   36.2274   52.2361 H   0  0  0  0  0  0  0  0  0  0  0  0
   34.1746   37.1960   51.2544 H   0  0  0  0  0  0  0  0  0  0  0  0
   32.9813   35.3714   52.4355 H   0  0  0  0  0  0  0  0  0  0  0  0
   32.4422   36.9663   53.0134 H   0  0  0  0  0  0  0  0  0  0  0  0
  1  2  2  0  0  0  0
  2  3  1  0  0  0  0
  2 10  1  0  0  0  0
  3  4  1  0  0  0  0
  4  9  1  0  0  0  0
  4  5  1  0  0  0  0
  4 24  1  0  0  0  0
  5  6  1  0  0  0  0
  5 25  1  0  0  0  0
  5 26  1  0  0  0  0
  6  7  1  0  0  0  0
  6 27  1  0  0  0  0
  6 28  1  0  0  0  0
  7  8  1  0  0  0  0
  7 29  1  0  0  0  0
  7 30  1  0  0  0  0
  8  9  1  0  0  0  0
  8 31  1  0  0  0  0
  8 32  1  0  0  0  0
  9 33  1  0  0  0  0
  9 34  1  0  0  0  0
 10 11  1  6  0  0  0
 10 13  1  0  0  0  0
 10 12  1  0  0  0  0
 12 13  1  0  0  0  0
 13 14  1  1  0  0  0
 13 15  1  0  0  0  0
 15 16  2  0  0  0  0
 15 17  1  0  0  0  0
 17 18  1  0  0  0  0
 18 23  1  0  0  0  0
 18 19  1  0  0  0  0
 18 35  1  0  0  0  0
 19 20  1  0  0  0  0
 19 36  1  0  0  0  0
 19 37  1  0  0  0  0
 20 21  1  0  0  0  0
 20 38  1  0  0  0  0
 20 39  1  0  0  0  0
 21 22  1  0  0  0  0
 21 40  1  0  0  0  0
 21 41  1  0  0  0  0
 22 23  1  0  0  0  0
 22 42  1  0  0  0  0
 22 43  1  0  0  0  0
 23 44  1  0  0  0  0
 23 45  1  0  0  0  0
M  END
$$$$
