ZINC000000027725      none
 OpenBabel11202420153D

 26 27  0  0  0  0  0  0  0  0999 V2000
   32.2753   35.8133   54.2375 O   0  0  0  0  0  0  0  0  0  0  0  0
   33.1039   35.9256   55.1230 C   0  0  0  0  0  0  0  0  0  0  0  0
   33.0116   36.9932   56.0470 C   0  0  0  0  0  0  0  0  0  0  0  0
   32.8772   36.7340   57.3717 C   0  0  0  0  0  0  0  0  0  0  0  0
   32.7849   37.8023   58.2964 C   0  0  0  0  0  0  0  0  0  0  0  0
   33.3553   39.0506   58.1561 C   0  0  0  0  0  0  0  0  0  0  0  0
   33.0057   39.7804   59.3023 C   0  0  0  0  0  0  0  0  0  0  0  0
   32.2537   38.9692   60.0789 C   0  0  0  0  0  0  0  0  0  0  0  0
   32.1182   37.7832   59.4695 O   0  0  0  0  0  0  0  0  0  0  0  0
   34.1087   35.0329   55.2227 N   0  0  0  0  0  0  0  0  0  0  0  0
   34.2000   33.9775   54.3090 C   0  0  0  0  0  0  0  0  0  0  0  0
   33.7287   34.1270   53.0075 C   0  0  0  0  0  0  0  0  0  0  0  0
   33.8406   33.0531   52.1392 C   0  0  0  0  0  0  0  0  0  0  0  0
   34.4115   31.8773   52.5889 C   0  0  0  0  0  0  0  0  0  0  0  0
   34.8489   31.7665   53.8282 N   0  0  0  0  0  0  0  0  0  0  0  0
   34.7623   32.7636   54.6873 C   0  0  0  0  0  0  0  0  0  0  0  0
   35.3556   32.5580   56.3056 Cl  0  0  0  0  0  0  0  0  0  0  0  0
   33.0483   38.0145   55.6977 H   0  0  0  0  0  0  0  0  0  0  0  0
   32.8406   35.7128   57.7211 H   0  0  0  0  0  0  0  0  0  0  0  0
   33.9534   39.3980   57.3266 H   0  0  0  0  0  0  0  0  0  0  0  0
   33.2852   40.8001   59.5229 H   0  0  0  0  0  0  0  0  0  0  0  0
   31.8266   39.2354   61.0344 H   0  0  0  0  0  0  0  0  0  0  0  0
   34.7686   35.1224   55.9279 H   0  0  0  0  0  0  0  0  0  0  0  0
   33.2867   35.0574   52.6826 H   0  0  0  0  0  0  0  0  0  0  0  0
   33.4859   33.1339   51.1224 H   0  0  0  0  0  0  0  0  0  0  0  0
   34.5047   31.0389   51.9146 H   0  0  0  0  0  0  0  0  0  0  0  0
  1  2  2  0  0  0  0
  2  3  1  0  0  0  0
  2 10  1  0  0  0  0
  3  4  2  0  0  0  0
  3 18  1  0  0  0  0
  4  5  1  0  0  0  0
  4 19  1  0  0  0  0
  5  9  1  0  0  0  0
  5  6  2  0  0  0  0
  6  7  1  0  0  0  0
  6 20  1  0  0  0  0
  7  8  2  0  0  0  0
  7 21  1  0  0  0  0
  8  9  1  0  0  0  0
  8 22  1  0  0  0  0
 10 11  1  0  0  0  0
 10 23  1  0  0  0  0
 11 16  2  0  0  0  0
 11 12  1  0  0  0  0
 12 13  2  0  0  0  0
 12 24  1  0  0  0  0
 13 14  1  0  0  0  0
 13 25  1  0  0  0  0
 14 15  2  0  0  0  0
 14 26  1  0  0  0  0
 15 16  1  0  0  0  0
 16 17  1  0  0  0  0
M  END
$$$$
