ZINC000000039786      none
 OpenBabel11202420153D

 23 24  0  0  0  0  0  0  0  0999 V2000
   32.4205   37.7173   63.0127 O   0  0  0  0  0  0  0  0  0  0  0  0
   31.5959   37.6968   62.1175 C   0  0  0  0  0  0  0  0  0  0  0  0
   30.3154   38.0311   62.3728 N   0  0  0  0  0  0  0  0  0  0  0  0
   29.9334   38.4093   63.6717 C   0  0  0  0  0  0  0  0  0  0  0  0
   30.5769   37.9125   64.7559 C   0  0  0  0  0  0  0  0  0  0  0  0
   30.1834   38.2993   66.0114 N   0  0  0  0  0  0  0  0  0  0  0  0
   30.6456   37.9424   66.7859 H   0  0  0  0  0  0  0  0  0  0  0  0
   29.1698   39.1628   66.1888 C   0  0  0  0  0  0  0  0  0  0  0  0
   28.8519   39.4792   67.3191 O   0  0  0  0  0  0  0  0  0  0  0  0
   28.4974   39.6859   65.1483 N   0  0  0  0  0  0  0  0  0  0  0  0
   27.7696   40.3072   65.3068 H   0  0  0  0  0  0  0  0  0  0  0  0
   28.8343   39.3545   63.8843 C   0  0  0  0  0  0  0  0  0  0  0  0
   28.2326   39.8287   62.9377 O   0  0  0  0  0  0  0  0  0  0  0  0
   31.9957   37.3082   60.7611 C   0  0  0  0  0  0  0  0  0  0  0  0
   32.4488   38.1498   59.7861 C   0  0  0  0  0  0  0  0  0  0  0  0
   32.7116   37.3564   58.6582 C   0  0  0  0  0  0  0  0  0  0  0  0
   32.4114   36.0815   58.9902 C   0  0  0  0  0  0  0  0  0  0  0  0
   31.9858   36.0555   60.2601 O   0  0  0  0  0  0  0  0  0  0  0  0
   29.6583   38.0147   61.6595 H   0  0  0  0  0  0  0  0  0  0  0  0
   31.3934   37.2167   64.6321 H   0  0  0  0  0  0  0  0  0  0  0  0
   32.5792   39.2188   59.8668 H   0  0  0  0  0  0  0  0  0  0  0  0
   33.0837   37.7004   57.7045 H   0  0  0  0  0  0  0  0  0  0  0  0
   32.5038   35.2238   58.3403 H   0  0  0  0  0  0  0  0  0  0  0  0
  1  2  2  0  0  0  0
  2  3  1  0  0  0  0
  2 14  1  0  0  0  0
  3  4  1  0  0  0  0
  3 19  1  0  0  0  0
  4 12  1  0  0  0  0
  4  5  2  0  0  0  0
  5  6  1  0  0  0  0
  5 20  1  0  0  0  0
  6  7  1  0  0  0  0
  6  8  1  0  0  0  0
  8  9  2  0  0  0  0
  8 10  1  0  0  0  0
 10 11  1  0  0  0  0
 10 12  1  0  0  0  0
 12 13  2  0  0  0  0
 14 18  1  0  0  0  0
 14 15  2  0  0  0  0
 15 16  1  0  0  0  0
 15 21  1  0  0  0  0
 16 17  2  0  0  0  0
 16 22  1  0  0  0  0
 17 18  1  0  0  0  0
 17 23  1  0  0  0  0
M  END
$$$$
