ZINC000000000464      none
 OpenBabel11202420153D

 29 29  0  0  1  0  0  0  0  0999 V2000
   29.4108   36.4635   61.0708 C   0  0  0  0  0  0  0  0  0  0  0  0
   30.6420   37.3664   61.1697 C   0  0  0  0  0  0  0  0  0  0  0  0
   30.5694   38.1885   62.4581 C   0  0  0  0  0  0  0  0  0  0  0  0
   30.6786   38.2467   60.0446 O   0  0  0  0  0  0  0  0  0  0  0  0
   31.9064   36.5051   61.1848 C   0  0  2  0  0  0  0  0  0  0  0  0
   31.8672   35.5627   62.3895 C   0  0  0  0  0  0  0  0  0  0  0  0
   33.0562   37.3485   61.2772 O   0  0  0  0  0  0  0  0  0  0  0  0
   31.9779   35.6955   59.9157 C   0  0  0  0  0  0  0  0  0  0  0  0
   31.4018   34.4397   59.8637 C   0  0  0  0  0  0  0  0  0  0  0  0
   31.4628   33.6985   58.6986 C   0  0  0  0  0  0  0  0  0  0  0  0
   32.1090   34.2082   57.5879 C   0  0  0  0  0  0  0  0  0  0  0  0
   32.6901   35.4624   57.6410 C   0  0  0  0  0  0  0  0  0  0  0  0
   33.5012   36.1034   56.2464 Cl  0  0  0  0  0  0  0  0  0  0  0  0
   32.6241   36.2061   58.8060 C   0  0  0  0  0  0  0  0  0  0  0  0
   29.4359   35.7259   61.8730 H   0  0  0  0  0  0  0  0  0  0  0  0
   28.5086   37.0682   61.1614 H   0  0  0  0  0  0  0  0  0  0  0  0
   29.4110   35.9530   60.1077 H   0  0  0  0  0  0  0  0  0  0  0  0
   31.4464   38.8317   62.5286 H   0  0  0  0  0  0  0  0  0  0  0  0
   29.6686   38.8021   62.4474 H   0  0  0  0  0  0  0  0  0  0  0  0
   30.5414   37.5170   63.3163 H   0  0  0  0  0  0  0  0  0  0  0  0
   30.7250   37.7932   59.1918 H   0  0  0  0  0  0  0  0  0  0  0  0
   31.8154   36.1482   63.3074 H   0  0  0  0  0  0  0  0  0  0  0  0
   30.9900   34.9193   62.3189 H   0  0  0  0  0  0  0  0  0  0  0  0
   32.7679   34.9491   62.4002 H   0  0  0  0  0  0  0  0  0  0  0  0
   33.1454   37.9735   60.5447 H   0  0  0  0  0  0  0  0  0  0  0  0
   30.9008   34.0392   60.7326 H   0  0  0  0  0  0  0  0  0  0  0  0
   31.0091   32.7193   58.6573 H   0  0  0  0  0  0  0  0  0  0  0  0
   32.1605   33.6271   56.6790 H   0  0  0  0  0  0  0  0  0  0  0  0
   33.0780   37.1852   58.8482 H   0  0  0  0  0  0  0  0  0  0  0  0
  1  2  1  0  0  0  0
  1 15  1  0  0  0  0
  1 16  1  0  0  0  0
  1 17  1  0  0  0  0
  2  3  1  0  0  0  0
  2  4  1  0  0  0  0
  2  5  1  0  0  0  0
  3 18  1  0  0  0  0
  3 19  1  0  0  0  0
  3 20  1  0  0  0  0
  4 21  1  0  0  0  0
  5  6  1  0  0  0  0
  5  7  1  1  0  0  0
  5  8  1  0  0  0  0
  6 22  1  0  0  0  0
  6 23  1  0  0  0  0
  6 24  1  0  0  0  0
  7 25  1  0  0  0  0
  8 14  2  0  0  0  0
  8  9  1  0  0  0  0
  9 10  2  0  0  0  0
  9 26  1  0  0  0  0
 10 11  1  0  0  0  0
 10 27  1  0  0  0  0
 11 12  2  0  0  0  0
 11 28  1  0  0  0  0
 12 13  1  0  0  0  0
 12 14  1  0  0  0  0
 14 29  1  0  0  0  0
M  END
$$$$
