ZINC000000041236      none
 OpenBabel11202420153D

 33 34  0  0  1  0  0  0  0  0999 V2000
   30.2650   40.0119   65.5625 C   0  0  0  0  0  0  0  0  0  0  0  0
   31.4278   39.0580   65.6592 C   0  0  0  0  0  0  0  0  0  0  0  0
   32.6140   39.3062   66.2896 N   0  0  0  0  0  0  0  0  0  0  0  0
   32.8524   40.1253   66.7516 H   0  0  0  0  0  0  0  0  0  0  0  0
   33.4268   38.1730   66.1537 N   0  0  0  0  0  0  0  0  0  0  0  0
   34.3253   38.0678   66.5035 H   0  0  0  0  0  0  0  0  0  0  0  0
   32.7325   37.2528   65.4536 C   0  0  0  0  0  0  0  0  0  0  0  0
   33.1204   36.1401   65.1461 O   0  0  0  0  0  0  0  0  0  0  0  0
   31.4736   37.8156   65.1378 C   0  0  0  0  0  0  0  0  0  0  0  0
   30.3729   37.1414   64.3598 C   0  0  1  0  0  0  0  0  0  0  0  0
   29.5201   37.8153   64.2784 H   0  0  0  0  0  0  0  0  0  0  0  0
   30.8724   36.7944   62.9810 C   0  0  0  0  0  0  0  0  0  0  0  0
   31.4702   35.5695   62.7504 C   0  0  0  0  0  0  0  0  0  0  0  0
   31.9244   35.2494   61.4847 C   0  0  0  0  0  0  0  0  0  0  0  0
   31.7895   36.1580   60.4516 C   0  0  0  0  0  0  0  0  0  0  0  0
   32.2800   35.8172   59.0974 N   0  0  0  0  0  0  0  0  0  0  0  0
   32.8026   34.7360   58.8930 O   0  0  0  0  0  0  0  0  0  0  0  0
   32.1613   36.6179   58.1872 O   0  0  0  0  0  0  0  0  0  0  0  0
   31.1960   37.3849   60.6833 C   0  0  0  0  0  0  0  0  0  0  0  0
   30.7379   37.7032   61.9481 C   0  0  0  0  0  0  0  0  0  0  0  0
   29.9456   35.8632   65.0841 C   0  0  0  0  0  0  0  0  0  0  0  0
   29.4578   36.2022   66.4310 C   0  0  0  0  0  0  0  0  0  0  0  0
   29.0813   36.4638   67.4703 N   0  0  0  0  0  0  0  0  0  0  0  0
   28.8705   35.2047   64.3242 C   0  0  0  0  0  0  0  0  0  0  0  0
   28.0410   34.6964   63.7378 N   0  0  0  0  0  0  0  0  0  0  0  0
   29.5998   39.8611   66.4126 H   0  0  0  0  0  0  0  0  0  0  0  0
   30.6348   41.0373   65.5678 H   0  0  0  0  0  0  0  0  0  0  0  0
   29.7197   39.8272   64.6369 H   0  0  0  0  0  0  0  0  0  0  0  0
   31.5792   34.8612   63.5584 H   0  0  0  0  0  0  0  0  0  0  0  0
   32.3877   34.2907   61.3035 H   0  0  0  0  0  0  0  0  0  0  0  0
   31.0906   38.0947   59.8762 H   0  0  0  0  0  0  0  0  0  0  0  0
   30.2746   38.6618   62.1292 H   0  0  0  0  0  0  0  0  0  0  0  0
   30.7984   35.1893   65.1656 H   0  0  0  0  0  0  0  0  0  0  0  0
  1  2  1  0  0  0  0
  1 26  1  0  0  0  0
  1 27  1  0  0  0  0
  1 28  1  0  0  0  0
  2  9  2  0  0  0  0
  2  3  1  0  0  0  0
  3  4  1  0  0  0  0
  3  5  1  0  0  0  0
  5  6  1  0  0  0  0
  5  7  1  0  0  0  0
  7  8  2  0  0  0  0
  7  9  1  0  0  0  0
  9 10  1  0  0  0  0
 10 11  1  6  0  0  0
 10 12  1  0  0  0  0
 10 21  1  0  0  0  0
 12 20  2  0  0  0  0
 12 13  1  0  0  0  0
 13 14  2  0  0  0  0
 13 29  1  0  0  0  0
 14 15  1  0  0  0  0
 14 30  1  0  0  0  0
 15 16  1  0  0  0  0
 15 19  2  0  0  0  0
 16 17  2  0  0  0  0
 16 18  2  0  0  0  0
 19 20  1  0  0  0  0
 19 31  1  0  0  0  0
 20 32  1  0  0  0  0
 21 22  1  0  0  0  0
 21 24  1  0  0  0  0
 21 33  1  0  0  0  0
 22 23  3  0  0  0  0
 24 25  3  0  0  0  0
M  END
$$$$
