ZINC000000052728      none
 OpenBabel11202420153D

 42 44  0  0  1  0  0  0  0  0999 V2000
   31.4564   39.9668   67.7213 C   0  0  0  0  0  0  0  0  0  0  0  0
   32.4709   39.2619   67.0031 O   0  0  0  0  0  0  0  0  0  0  0  0
   32.0652   38.4852   65.9644 C   0  0  0  0  0  0  0  0  0  0  0  0
   32.9971   37.7727   65.2238 C   0  0  0  0  0  0  0  0  0  0  0  0
   32.5819   36.9836   64.1688 C   0  0  0  0  0  0  0  0  0  0  0  0
   31.2388   36.9035   63.8506 C   0  0  0  0  0  0  0  0  0  0  0  0
   30.7885   36.0417   62.6991 C   0  0  2  0  0  0  0  0  0  0  0  0
   29.7047   36.1038   62.6009 H   0  0  0  0  0  0  0  0  0  0  0  0
   31.1679   34.6856   62.9421 O   0  0  0  0  0  0  0  0  0  0  0  0
   31.4366   36.5245   61.4270 C   0  0  0  0  0  0  0  0  0  0  0  0
   31.7788   37.7564   61.1859 N   0  0  0  0  0  0  0  0  0  0  0  0
   32.3294   37.8431   59.9478 C   0  0  0  0  0  0  0  0  0  0  0  0
   32.8522   38.8997   59.1973 C   0  0  0  0  0  0  0  0  0  0  0  0
   33.3471   38.6662   57.9457 C   0  0  0  0  0  0  0  0  0  0  0  0
   33.3378   37.3868   57.4081 C   0  0  0  0  0  0  0  0  0  0  0  0
   32.8274   36.3292   58.1303 C   0  0  0  0  0  0  0  0  0  0  0  0
   32.3197   36.5475   59.4039 C   0  0  0  0  0  0  0  0  0  0  0  0
   31.7519   35.7352   60.3648 N   0  0  0  0  0  0  0  0  0  0  0  0
   31.5249   34.2918   60.2580 C   0  0  0  0  0  0  0  0  0  0  0  0
   32.8632   33.5789   60.0539 C   0  0  0  0  0  0  0  0  0  0  0  0
   30.6081   34.0066   59.0667 C   0  0  0  0  0  0  0  0  0  0  0  0
   30.3085   37.6170   64.5836 C   0  0  0  0  0  0  0  0  0  0  0  0
   30.7180   38.4031   65.6432 C   0  0  0  0  0  0  0  0  0  0  0  0
   30.9299   40.6376   67.0424 H   0  0  0  0  0  0  0  0  0  0  0  0
   30.7507   39.2535   68.1473 H   0  0  0  0  0  0  0  0  0  0  0  0
   31.9147   40.5469   68.5223 H   0  0  0  0  0  0  0  0  0  0  0  0
   34.0464   37.8353   65.4716 H   0  0  0  0  0  0  0  0  0  0  0  0
   33.3070   36.4285   63.5922 H   0  0  0  0  0  0  0  0  0  0  0  0
   32.1212   34.5555   63.0402 H   0  0  0  0  0  0  0  0  0  0  0  0
   32.8643   39.8994   59.6060 H   0  0  0  0  0  0  0  0  0  0  0  0
   33.7500   39.4855   57.3688 H   0  0  0  0  0  0  0  0  0  0  0  0
   33.7334   37.2184   56.4174 H   0  0  0  0  0  0  0  0  0  0  0  0
   32.8223   35.3357   57.7072 H   0  0  0  0  0  0  0  0  0  0  0  0
   31.0558   33.9290   61.1725 H   0  0  0  0  0  0  0  0  0  0  0  0
   33.3322   33.9416   59.1392 H   0  0  0  0  0  0  0  0  0  0  0  0
   33.5164   33.7821   60.9025 H   0  0  0  0  0  0  0  0  0  0  0  0
   32.6944   32.5050   59.9744 H   0  0  0  0  0  0  0  0  0  0  0  0
   30.4393   32.9326   58.9873 H   0  0  0  0  0  0  0  0  0  0  0  0
   29.6547   34.5144   59.2122 H   0  0  0  0  0  0  0  0  0  0  0  0
   31.0772   34.3693   58.1523 H   0  0  0  0  0  0  0  0  0  0  0  0
   29.2603   37.5564   64.3301 H   0  0  0  0  0  0  0  0  0  0  0  0
   29.9905   38.9567   66.2182 H   0  0  0  0  0  0  0  0  0  0  0  0
  1  2  1  0  0  0  0
  1 24  1  0  0  0  0
  1 25  1  0  0  0  0
  1 26  1  0  0  0  0
  2  3  1  0  0  0  0
  3 23  2  0  0  0  0
  3  4  1  0  0  0  0
  4  5  2  0  0  0  0
  4 27  1  0  0  0  0
  5  6  1  0  0  0  0
  5 28  1  0  0  0  0
  6  7  1  0  0  0  0
  6 22  2  0  0  0  0
  7  8  1  6  0  0  0
  7  9  1  0  0  0  0
  7 10  1  0  0  0  0
  9 29  1  0  0  0  0
 10 18  1  0  0  0  0
 10 11  2  0  0  0  0
 11 12  1  0  0  0  0
 12 17  2  0  0  0  0
 12 13  1  0  0  0  0
 13 14  2  0  0  0  0
 13 30  1  0  0  0  0
 14 15  1  0  0  0  0
 14 31  1  0  0  0  0
 15 16  2  0  0  0  0
 15 32  1  0  0  0  0
 16 17  1  0  0  0  0
 16 33  1  0  0  0  0
 17 18  1  0  0  0  0
 18 19  1  0  0  0  0
 19 20  1  0  0  0  0
 19 21  1  0  0  0  0
 19 34  1  0  0  0  0
 20 35  1  0  0  0  0
 20 36  1  0  0  0  0
 20 37  1  0  0  0  0
 21 38  1  0  0  0  0
 21 39  1  0  0  0  0
 21 40  1  0  0  0  0
 22 23  1  0  0  0  0
 22 41  1  0  0  0  0
 23 42  1  0  0  0  0
M  END
$$$$
