ZINC000000045691      none
 OpenBabel11202420153D

 36 37  0  0  0  0  0  0  0  0999 V2000
   31.2332   41.1611   67.8506 C   0  0  0  0  0  0  0  0  0  0  0  0
   29.9850   40.8398   67.2335 O   0  0  0  0  0  0  0  0  0  0  0  0
   29.8835   39.6179   66.6452 C   0  0  0  0  0  0  0  0  0  0  0  0
   30.2229   39.4612   65.3145 C   0  0  0  0  0  0  0  0  0  0  0  0
   30.1174   38.2043   64.7132 C   0  0  0  0  0  0  0  0  0  0  0  0
   30.4781   38.0312   63.2944 C   0  0  0  0  0  0  0  0  0  0  0  0
   30.8943   39.0473   62.6021 N   0  0  0  0  0  0  0  0  0  0  0  0
   31.2372   38.8827   61.2536 N   0  0  0  0  0  0  0  0  0  0  0  0
   32.2209   38.0288   60.9076 C   0  0  0  0  0  0  0  0  0  0  0  0
   32.8143   37.4046   61.7666 O   0  0  0  0  0  0  0  0  0  0  0  0
   32.5775   37.8513   59.4886 C   0  0  0  0  0  0  0  0  0  0  0  0
   32.4782   36.5919   58.8909 C   0  0  0  0  0  0  0  0  0  0  0  0
   32.8088   36.4336   57.5630 C   0  0  0  0  0  0  0  0  0  0  0  0
   33.2498   37.5155   56.8173 C   0  0  0  0  0  0  0  0  0  0  0  0
   33.3579   38.7642   57.3939 C   0  0  0  0  0  0  0  0  0  0  0  0
   33.0245   38.9448   58.7306 C   0  0  0  0  0  0  0  0  0  0  0  0
   33.1324   40.2009   59.3134 N   0  0  0  0  0  0  0  0  0  0  0  0
   29.6639   37.1130   65.4588 C   0  0  0  0  0  0  0  0  0  0  0  0
   29.3330   37.2758   66.7875 C   0  0  0  0  0  0  0  0  0  0  0  0
   29.4378   38.5240   67.3840 C   0  0  0  0  0  0  0  0  0  0  0  0
   29.1046   38.6802   68.6926 O   0  0  0  0  0  0  0  0  0  0  0  0
   32.0265   41.1287   67.1038 H   0  0  0  0  0  0  0  0  0  0  0  0
   31.1792   42.1613   68.2802 H   0  0  0  0  0  0  0  0  0  0  0  0
   31.4457   40.4384   68.6383 H   0  0  0  0  0  0  0  0  0  0  0  0
   30.5685   40.3084   64.7407 H   0  0  0  0  0  0  0  0  0  0  0  0
   30.3963   37.0592   62.8311 H   0  0  0  0  0  0  0  0  0  0  0  0
   30.7641   39.3806   60.5686 H   0  0  0  0  0  0  0  0  0  0  0  0
   32.1389   35.7447   59.4684 H   0  0  0  0  0  0  0  0  0  0  0  0
   32.7278   35.4604   57.1018 H   0  0  0  0  0  0  0  0  0  0  0  0
   33.5103   37.3801   55.7779 H   0  0  0  0  0  0  0  0  0  0  0  0
   33.7024   39.6019   56.8059 H   0  0  0  0  0  0  0  0  0  0  0  0
   33.2370   40.2825   60.2743 H   0  0  0  0  0  0  0  0  0  0  0  0
   33.1032   40.9968   58.7595 H   0  0  0  0  0  0  0  0  0  0  0  0
   29.5770   36.1412   64.9957 H   0  0  0  0  0  0  0  0  0  0  0  0
   28.9871   36.4306   67.3639 H   0  0  0  0  0  0  0  0  0  0  0  0
   28.8068   37.8666   69.1223 H   0  0  0  0  0  0  0  0  0  0  0  0
  1  2  1  0  0  0  0
  1 22  1  0  0  0  0
  1 23  1  0  0  0  0
  1 24  1  0  0  0  0
  2  3  1  0  0  0  0
  3 20  2  0  0  0  0
  3  4  1  0  0  0  0
  4  5  2  0  0  0  0
  4 25  1  0  0  0  0
  5  6  1  0  0  0  0
  5 18  1  0  0  0  0
  6  7  2  0  0  0  0
  6 26  1  0  0  0  0
  7  8  1  0  0  0  0
  8  9  1  0  0  0  0
  8 27  1  0  0  0  0
  9 10  2  0  0  0  0
  9 11  1  0  0  0  0
 11 16  2  0  0  0  0
 11 12  1  0  0  0  0
 12 13  2  0  0  0  0
 12 28  1  0  0  0  0
 13 14  1  0  0  0  0
 13 29  1  0  0  0  0
 14 15  2  0  0  0  0
 14 30  1  0  0  0  0
 15 16  1  0  0  0  0
 15 31  1  0  0  0  0
 16 17  1  0  0  0  0
 17 32  1  0  0  0  0
 17 33  1  0  0  0  0
 18 19  2  0  0  0  0
 18 34  1  0  0  0  0
 19 20  1  0  0  0  0
 19 35  1  0  0  0  0
 20 21  1  0  0  0  0
 21 36  1  0  0  0  0
M  END
$$$$
