ZINC000000040791      none
 OpenBabel11202420153D

 31 32  0  0  0  0  0  0  0  0999 V2000
   32.5150   37.4769   57.8875 C   0  0  0  0  0  0  0  0  0  0  0  0
   32.4544   37.0667   59.2967 N   0  0  0  0  0  0  0  0  0  0  0  0
   32.0938   38.1999   60.1600 C   0  0  0  0  0  0  0  0  0  0  0  0
   32.1192   37.7515   61.6232 C   0  0  0  0  0  0  0  0  0  0  0  0
   31.1823   36.6343   61.8067 N   0  0  0  0  0  0  0  0  0  0  0  0
   31.1218   36.2242   63.2160 C   0  0  0  0  0  0  0  0  0  0  0  0
   31.1477   37.4469   64.0966 C   0  0  0  0  0  0  0  0  0  0  0  0
   32.2490   38.0205   64.5837 C   0  0  0  0  0  0  0  0  0  0  0  0
   32.0261   39.1396   65.3674 C   0  0  0  0  0  0  0  0  0  0  0  0
   30.7430   39.4687   65.5250 C   0  0  0  0  0  0  0  0  0  0  0  0
   30.2476   40.6153   66.3198 N   0  0  0  0  0  0  0  0  0  0  0  0
   31.0364   41.3447   66.8935 O   0  0  0  0  0  0  0  0  0  0  0  0
   29.0512   40.8290   66.3998 O   0  0  0  0  0  0  0  0  0  0  0  0
   29.7300   38.3314   64.6454 S   0  0  0  0  0  0  0  0  0  0  0  0
   31.5429   35.5011   60.9434 C   0  0  0  0  0  0  0  0  0  0  0  0
   31.5175   35.9496   59.4803 C   0  0  0  0  0  0  0  0  0  0  0  0
   33.2646   38.2592   57.7686 H   0  0  0  0  0  0  0  0  0  0  0  0
   32.7837   36.6193   57.2707 H   0  0  0  0  0  0  0  0  0  0  0  0
   31.5414   37.8564   57.5774 H   0  0  0  0  0  0  0  0  0  0  0  0
   31.0933   38.5484   59.9038 H   0  0  0  0  0  0  0  0  0  0  0  0
   32.8090   39.0097   60.0154 H   0  0  0  0  0  0  0  0  0  0  0  0
   31.8239   38.5828   62.2634 H   0  0  0  0  0  0  0  0  0  0  0  0
   33.1262   37.4288   61.8875 H   0  0  0  0  0  0  0  0  0  0  0  0
   30.2012   35.6681   63.3934 H   0  0  0  0  0  0  0  0  0  0  0  0
   31.9787   35.5915   63.4475 H   0  0  0  0  0  0  0  0  0  0  0  0
   33.2399   37.6422   64.3796 H   0  0  0  0  0  0  0  0  0  0  0  0
   32.8297   39.7011   65.8204 H   0  0  0  0  0  0  0  0  0  0  0  0
   32.5434   35.1527   61.1996 H   0  0  0  0  0  0  0  0  0  0  0  0
   30.8275   34.6916   61.0881 H   0  0  0  0  0  0  0  0  0  0  0  0
   30.5104   36.2724   59.2163 H   0  0  0  0  0  0  0  0  0  0  0  0
   31.8126   35.1184   58.8397 H   0  0  0  0  0  0  0  0  0  0  0  0
  1  2  1  0  0  0  0
  1 17  1  0  0  0  0
  1 18  1  0  0  0  0
  1 19  1  0  0  0  0
  2 16  1  0  0  0  0
  2  3  1  0  0  0  0
  3  4  1  0  0  0  0
  3 20  1  0  0  0  0
  3 21  1  0  0  0  0
  4  5  1  0  0  0  0
  4 22  1  0  0  0  0
  4 23  1  0  0  0  0
  5  6  1  0  0  0  0
  5 15  1  0  0  0  0
  6  7  1  0  0  0  0
  6 24  1  0  0  0  0
  6 25  1  0  0  0  0
  7 14  1  0  0  0  0
  7  8  2  0  0  0  0
  8  9  1  0  0  0  0
  8 26  1  0  0  0  0
  9 10  2  0  0  0  0
  9 27  1  0  0  0  0
 10 11  1  0  0  0  0
 10 14  1  0  0  0  0
 11 12  2  0  0  0  0
 11 13  2  0  0  0  0
 15 16  1  0  0  0  0
 15 28  1  0  0  0  0
 15 29  1  0  0  0  0
 16 30  1  0  0  0  0
 16 31  1  0  0  0  0
M  END
$$$$
