ZINC000000038548      none
 OpenBabel11202420153D

 46 47  0  0  0  0  0  0  0  0999 V2000
   34.7652   40.9011   67.6425 C   0  0  0  0  0  0  0  0  0  0  0  0
   33.8244   40.6761   68.7981 C   0  0  0  0  0  0  0  0  0  0  0  0
   34.0741   41.1527   69.8852 O   0  0  0  0  0  0  0  0  0  0  0  0
   32.7053   39.9455   68.6236 N   0  0  0  0  0  0  0  0  0  0  0  0
   31.7907   39.7270   69.7471 C   0  0  0  0  0  0  0  0  0  0  0  0
   32.4167   39.3952   67.3684 C   0  0  0  0  0  0  0  0  0  0  0  0
   31.6701   40.1189   66.4479 C   0  0  0  0  0  0  0  0  0  0  0  0
   31.3854   39.5764   65.2109 C   0  0  0  0  0  0  0  0  0  0  0  0
   31.8460   38.3070   64.8867 C   0  0  0  0  0  0  0  0  0  0  0  0
   31.5571   37.7565   63.6316 N   0  0  0  0  0  0  0  0  0  0  0  0
   32.4157   36.8869   63.0633 C   0  0  0  0  0  0  0  0  0  0  0  0
   33.4411   36.5848   63.6366 O   0  0  0  0  0  0  0  0  0  0  0  0
   32.1020   36.2897   61.7157 C   0  0  0  0  0  0  0  0  0  0  0  0
   31.9785   37.3345   60.7487 O   0  0  0  0  0  0  0  0  0  0  0  0
   32.3176   37.0329   59.4678 C   0  0  0  0  0  0  0  0  0  0  0  0
   32.1585   35.7388   58.9931 C   0  0  0  0  0  0  0  0  0  0  0  0
   32.5040   35.4348   57.6908 C   0  0  0  0  0  0  0  0  0  0  0  0
   32.3315   34.0295   57.1746 C   0  0  0  0  0  0  0  0  0  0  0  0
   33.0084   36.4188   56.8604 C   0  0  0  0  0  0  0  0  0  0  0  0
   33.1674   37.7090   57.3307 C   0  0  0  0  0  0  0  0  0  0  0  0
   32.8180   38.0194   58.6309 C   0  0  0  0  0  0  0  0  0  0  0  0
   32.9862   39.4274   59.1413 C   0  0  0  0  0  0  0  0  0  0  0  0
   32.5882   37.5812   65.8092 C   0  0  0  0  0  0  0  0  0  0  0  0
   32.8777   38.1261   67.0441 C   0  0  0  0  0  0  0  0  0  0  0  0
   34.3320   40.4820   66.7345 H   0  0  0  0  0  0  0  0  0  0  0  0
   34.9263   41.9707   67.5081 H   0  0  0  0  0  0  0  0  0  0  0  0
   35.7178   40.4133   67.8494 H   0  0  0  0  0  0  0  0  0  0  0  0
   32.1344   38.8762   70.3353 H   0  0  0  0  0  0  0  0  0  0  0  0
   31.7676   40.6174   70.3753 H   0  0  0  0  0  0  0  0  0  0  0  0
   30.7894   39.5249   69.3665 H   0  0  0  0  0  0  0  0  0  0  0  0
   31.3118   41.1061   66.7000 H   0  0  0  0  0  0  0  0  0  0  0  0
   30.8040   40.1389   64.4954 H   0  0  0  0  0  0  0  0  0  0  0  0
   30.7371   37.9981   63.1731 H   0  0  0  0  0  0  0  0  0  0  0  0
   32.9059   35.6151   61.4212 H   0  0  0  0  0  0  0  0  0  0  0  0
   31.1652   35.7353   61.7734 H   0  0  0  0  0  0  0  0  0  0  0  0
   31.7653   34.9698   59.6415 H   0  0  0  0  0  0  0  0  0  0  0  0
   31.3364   33.9203   56.7437 H   0  0  0  0  0  0  0  0  0  0  0  0
   33.0825   33.8283   56.4106 H   0  0  0  0  0  0  0  0  0  0  0  0
   32.4511   33.3234   57.9964 H   0  0  0  0  0  0  0  0  0  0  0  0
   33.2783   36.1790   55.8425 H   0  0  0  0  0  0  0  0  0  0  0  0
   33.5612   38.4758   56.6801 H   0  0  0  0  0  0  0  0  0  0  0  0
   33.9817   39.5419   59.5702 H   0  0  0  0  0  0  0  0  0  0  0  0
   32.8626   40.1299   58.3170 H   0  0  0  0  0  0  0  0  0  0  0  0
   32.2358   39.6288   59.9059 H   0  0  0  0  0  0  0  0  0  0  0  0
   32.9426   36.5923   65.5587 H   0  0  0  0  0  0  0  0  0  0  0  0
   33.4588   37.5633   67.7597 H   0  0  0  0  0  0  0  0  0  0  0  0
  1  2  1  0  0  0  0
  1 25  1  0  0  0  0
  1 26  1  0  0  0  0
  1 27  1  0  0  0  0
  2  3  2  0  0  0  0
  2  4  1  0  0  0  0
  4  5  1  0  0  0  0
  4  6  1  0  0  0  0
  5 28  1  0  0  0  0
  5 29  1  0  0  0  0
  5 30  1  0  0  0  0
  6 24  2  0  0  0  0
  6  7  1  0  0  0  0
  7  8  2  0  0  0  0
  7 31  1  0  0  0  0
  8  9  1  0  0  0  0
  8 32  1  0  0  0  0
  9 10  1  0  0  0  0
  9 23  2  0  0  0  0
 10 11  1  0  0  0  0
 10 33  1  0  0  0  0
 11 12  2  0  0  0  0
 11 13  1  0  0  0  0
 13 14  1  0  0  0  0
 13 34  1  0  0  0  0
 13 35  1  0  0  0  0
 14 15  1  0  0  0  0
 15 21  2  0  0  0  0
 15 16  1  0  0  0  0
 16 17  2  0  0  0  0
 16 36  1  0  0  0  0
 17 18  1  0  0  0  0
 17 19  1  0  0  0  0
 18 37  1  0  0  0  0
 18 38  1  0  0  0  0
 18 39  1  0  0  0  0
 19 20  2  0  0  0  0
 19 40  1  0  0  0  0
 20 21  1  0  0  0  0
 20 41  1  0  0  0  0
 21 22  1  0  0  0  0
 22 42  1  0  0  0  0
 22 43  1  0  0  0  0
 22 44  1  0  0  0  0
 23 24  1  0  0  0  0
 23 45  1  0  0  0  0
 24 46  1  0  0  0  0
M  END
$$$$
