ZINC000000037927      none
 OpenBabel11202420153D

 28 30  0  0  0  0  0  0  0  0999 V2000
   32.6466   36.7675   60.7077 O   0  0  0  0  0  0  0  0  0  0  0  0
   32.2368   37.8796   60.9781 C   0  0  0  0  0  0  0  0  0  0  0  0
   32.2324   38.8436   60.0361 N   0  0  0  0  0  0  0  0  0  0  0  0
   32.6997   38.5641   58.7462 C   0  0  0  0  0  0  0  0  0  0  0  0
   32.5765   37.2827   58.2255 C   0  0  0  0  0  0  0  0  0  0  0  0
   33.0368   37.0056   56.9525 C   0  0  0  0  0  0  0  0  0  0  0  0
   33.6224   38.0048   56.1920 C   0  0  0  0  0  0  0  0  0  0  0  0
   33.7473   39.2911   56.7115 C   0  0  0  0  0  0  0  0  0  0  0  0
   33.2810   39.5694   57.9854 C   0  0  0  0  0  0  0  0  0  0  0  0
   34.3511   40.0824   55.7772 O   0  0  0  0  0  0  0  0  0  0  0  0
   34.9629   39.1748   54.8418 C   0  0  0  0  0  0  0  0  0  0  0  0
   34.1485   37.9908   54.9314 O   0  0  0  0  0  0  0  0  0  0  0  0
   31.7435   38.1747   62.3400 C   0  0  0  0  0  0  0  0  0  0  0  0
   30.7933   39.1754   62.5490 C   0  0  0  0  0  0  0  0  0  0  0  0
   30.3495   39.4351   63.7611 N   0  0  0  0  0  0  0  0  0  0  0  0
   30.7812   38.7736   64.8180 C   0  0  0  0  0  0  0  0  0  0  0  0
   31.7266   37.7702   64.6957 C   0  0  0  0  0  0  0  0  0  0  0  0
   32.3312   36.8353   66.2242 Br  0  0  0  0  0  0  0  0  0  0  0  0
   32.2254   37.4587   63.4421 C   0  0  0  0  0  0  0  0  0  0  0  0
   31.9054   39.7309   60.2520 H   0  0  0  0  0  0  0  0  0  0  0  0
   32.1202   36.5020   58.8159 H   0  0  0  0  0  0  0  0  0  0  0  0
   32.9404   36.0082   56.5497 H   0  0  0  0  0  0  0  0  0  0  0  0
   33.3729   40.5672   58.3884 H   0  0  0  0  0  0  0  0  0  0  0  0
   35.9896   38.9565   55.1355 H   0  0  0  0  0  0  0  0  0  0  0  0
   34.9314   39.5859   53.8327 H   0  0  0  0  0  0  0  0  0  0  0  0
   30.4154   39.7388   61.7087 H   0  0  0  0  0  0  0  0  0  0  0  0
   30.3902   39.0190   65.7945 H   0  0  0  0  0  0  0  0  0  0  0  0
   32.9640   36.6806   63.3173 H   0  0  0  0  0  0  0  0  0  0  0  0
  1  2  2  0  0  0  0
  2  3  1  0  0  0  0
  2 13  1  0  0  0  0
  3  4  1  0  0  0  0
  3 20  1  0  0  0  0
  4  9  2  0  0  0  0
  4  5  1  0  0  0  0
  5  6  2  0  0  0  0
  5 21  1  0  0  0  0
  6  7  1  0  0  0  0
  6 22  1  0  0  0  0
  7 12  1  0  0  0  0
  7  8  2  0  0  0  0
  8  9  1  0  0  0  0
  8 10  1  0  0  0  0
  9 23  1  0  0  0  0
 10 11  1  0  0  0  0
 11 12  1  0  0  0  0
 11 24  1  0  0  0  0
 11 25  1  0  0  0  0
 13 19  2  0  0  0  0
 13 14  1  0  0  0  0
 14 15  2  0  0  0  0
 14 26  1  0  0  0  0
 15 16  1  0  0  0  0
 16 17  2  0  0  0  0
 16 27  1  0  0  0  0
 17 18  1  0  0  0  0
 17 19  1  0  0  0  0
 19 28  1  0  0  0  0
M  END
$$$$
