ZINC000000041979      none
 OpenBabel11202420153D

 36 37  0  0  1  0  0  0  0  0999 V2000
   31.1502   32.8249   62.5886 C   0  0  0  0  0  0  0  0  0  0  0  0
   32.0106   34.0888   62.6461 C   0  0  0  0  0  0  0  0  0  0  0  0
   31.3045   35.1845   62.0061 O   0  0  0  0  0  0  0  0  0  0  0  0
   31.9271   36.3731   61.9715 C   0  0  0  0  0  0  0  0  0  0  0  0
   33.0256   36.4941   62.4598 O   0  0  0  0  0  0  0  0  0  0  0  0
   31.2560   37.5568   61.3240 C   0  0  1  0  0  0  0  0  0  0  0  0
   30.6024   37.2106   60.5233 H   0  0  0  0  0  0  0  0  0  0  0  0
   30.4286   38.3085   62.3685 C   0  0  0  0  0  0  0  0  0  0  0  0
   32.2491   38.4308   60.7837 O   0  0  0  0  0  0  0  0  0  0  0  0
   32.6337   38.2085   59.5010 C   0  0  0  0  0  0  0  0  0  0  0  0
   32.5979   36.9151   58.9829 C   0  0  0  0  0  0  0  0  0  0  0  0
   32.9817   36.6755   57.6955 C   0  0  0  0  0  0  0  0  0  0  0  0
   33.4143   37.7352   56.8899 C   0  0  0  0  0  0  0  0  0  0  0  0
   33.8316   37.5077   55.5048 C   0  0  0  0  0  0  0  0  0  0  0  0
   33.8082   36.1248   54.9065 C   0  0  0  0  0  0  0  0  0  0  0  0
   34.2243   38.5799   54.7686 C   0  0  0  0  0  0  0  0  0  0  0  0
   34.2379   39.8637   55.3515 C   0  0  0  0  0  0  0  0  0  0  0  0
   34.6026   40.8148   54.6837 O   0  0  0  0  0  0  0  0  0  0  0  0
   33.8594   40.0646   56.6234 O   0  0  0  0  0  0  0  0  0  0  0  0
   33.4472   39.0441   57.4056 C   0  0  0  0  0  0  0  0  0  0  0  0
   33.0591   39.2689   58.7178 C   0  0  0  0  0  0  0  0  0  0  0  0
   30.2082   33.0027   63.1076 H   0  0  0  0  0  0  0  0  0  0  0  0
   30.9491   32.5694   61.5482 H   0  0  0  0  0  0  0  0  0  0  0  0
   31.6801   32.0025   63.0690 H   0  0  0  0  0  0  0  0  0  0  0  0
   32.9524   33.9111   62.1271 H   0  0  0  0  0  0  0  0  0  0  0  0
   32.2116   34.3446   63.6864 H   0  0  0  0  0  0  0  0  0  0  0  0
   29.6711   37.6419   62.7805 H   0  0  0  0  0  0  0  0  0  0  0  0
   31.0823   38.6547   63.1692 H   0  0  0  0  0  0  0  0  0  0  0  0
   29.9432   39.1646   61.9001 H   0  0  0  0  0  0  0  0  0  0  0  0
   32.2638   36.0975   59.6042 H   0  0  0  0  0  0  0  0  0  0  0  0
   32.9521   35.6710   57.2996 H   0  0  0  0  0  0  0  0  0  0  0  0
   32.8368   35.9444   54.4461 H   0  0  0  0  0  0  0  0  0  0  0  0
   34.5893   36.0427   54.1507 H   0  0  0  0  0  0  0  0  0  0  0  0
   33.9817   35.3871   55.6898 H   0  0  0  0  0  0  0  0  0  0  0  0
   34.5343   38.4479   53.7424 H   0  0  0  0  0  0  0  0  0  0  0  0
   33.0842   40.2683   59.1266 H   0  0  0  0  0  0  0  0  0  0  0  0
  1  2  1  0  0  0  0
  1 22  1  0  0  0  0
  1 23  1  0  0  0  0
  1 24  1  0  0  0  0
  2  3  1  0  0  0  0
  2 25  1  0  0  0  0
  2 26  1  0  0  0  0
  3  4  1  0  0  0  0
  4  5  2  0  0  0  0
  4  6  1  0  0  0  0
  6  7  1  6  0  0  0
  6  8  1  0  0  0  0
  6  9  1  0  0  0  0
  8 27  1  0  0  0  0
  8 28  1  0  0  0  0
  8 29  1  0  0  0  0
  9 10  1  0  0  0  0
 10 21  2  0  0  0  0
 10 11  1  0  0  0  0
 11 12  2  0  0  0  0
 11 30  1  0  0  0  0
 12 13  1  0  0  0  0
 12 31  1  0  0  0  0
 13 20  2  0  0  0  0
 13 14  1  0  0  0  0
 14 15  1  0  0  0  0
 14 16  2  0  0  0  0
 15 32  1  0  0  0  0
 15 33  1  0  0  0  0
 15 34  1  0  0  0  0
 16 17  1  0  0  0  0
 16 35  1  0  0  0  0
 17 18  2  0  0  0  0
 17 19  1  0  0  0  0
 19 20  1  0  0  0  0
 20 21  1  0  0  0  0
 21 36  1  0  0  0  0
M  END
$$$$
