ZINC000000043412      none
 OpenBabel11202420153D

 39 41  0  0  1  0  0  0  0  0999 V2000
   33.2806   36.6711   55.2466 C   0  0  0  0  0  0  0  0  0  0  0  0
   33.9122   36.7052   56.5279 O   0  0  0  0  0  0  0  0  0  0  0  0
   33.1712   37.1696   57.5694 C   0  0  0  0  0  0  0  0  0  0  0  0
   33.1805   38.5259   57.8820 C   0  0  0  0  0  0  0  0  0  0  0  0
   33.9308   39.3896   57.1468 O   0  0  0  0  0  0  0  0  0  0  0  0
   32.4240   38.9941   58.9438 C   0  0  0  0  0  0  0  0  0  0  0  0
   31.6619   38.1145   59.6906 C   0  0  0  0  0  0  0  0  0  0  0  0
   31.6531   36.7677   59.3806 C   0  0  0  0  0  0  0  0  0  0  0  0
   30.8215   35.8133   60.1984 C   0  0  2  0  0  0  0  0  0  0  0  0
   30.5034   34.9856   59.5645 H   0  0  0  0  0  0  0  0  0  0  0  0
   29.6416   36.5143   60.6949 N   0  0  0  0  0  0  0  0  0  0  0  0
   29.6337   37.1903   61.8653 C   0  0  0  0  0  0  0  0  0  0  0  0
   28.6825   37.8729   62.1988 O   0  0  0  0  0  0  0  0  0  0  0  0
   30.8300   37.0593   62.7232 C   0  0  0  0  0  0  0  0  0  0  0  0
   31.7949   36.1056   62.4140 C   0  0  0  0  0  0  0  0  0  0  0  0
   33.0577   36.1380   63.5439 S   0  0  0  0  0  0  0  0  0  0  0  0
   32.3181   37.4449   64.4534 C   0  0  0  0  0  0  0  0  0  0  0  0
   32.9098   38.0647   65.6931 C   0  0  0  0  0  0  0  0  0  0  0  0
   31.1694   37.8137   63.9037 C   0  0  0  0  0  0  0  0  0  0  0  0
   30.3026   38.9142   64.4592 C   0  0  0  0  0  0  0  0  0  0  0  0
   31.6411   35.2870   61.2997 N   0  0  0  0  0  0  0  0  0  0  0  0
   32.4101   36.2930   58.3251 C   0  0  0  0  0  0  0  0  0  0  0  0
   32.4029   34.8490   57.9998 N   0  0  0  0  0  0  0  0  0  0  0  0
   33.0664   34.4316   57.0675 O   0  0  0  0  0  0  0  0  0  0  0  0
   31.7337   34.0783   58.6642 O   0  0  0  0  0  0  0  0  0  0  0  0
   33.9799   36.2811   54.5070 H   0  0  0  0  0  0  0  0  0  0  0  0
   32.4023   36.0270   55.2913 H   0  0  0  0  0  0  0  0  0  0  0  0
   32.9777   37.6794   54.9639 H   0  0  0  0  0  0  0  0  0  0  0  0
   34.4233   38.9695   56.4284 H   0  0  0  0  0  0  0  0  0  0  0  0
   32.4297   40.0459   59.1886 H   0  0  0  0  0  0  0  0  0  0  0  0
   31.0726   38.4807   60.5182 H   0  0  0  0  0  0  0  0  0  0  0  0
   28.8317   36.4976   60.1614 H   0  0  0  0  0  0  0  0  0  0  0  0
   33.8558   37.5766   65.9273 H   0  0  0  0  0  0  0  0  0  0  0  0
   33.0819   39.1273   65.5215 H   0  0  0  0  0  0  0  0  0  0  0  0
   32.2195   37.9385   66.5273 H   0  0  0  0  0  0  0  0  0  0  0  0
   30.5916   39.8653   64.0117 H   0  0  0  0  0  0  0  0  0  0  0  0
   29.2582   38.7061   64.2275 H   0  0  0  0  0  0  0  0  0  0  0  0
   30.4312   38.9674   65.5403 H   0  0  0  0  0  0  0  0  0  0  0  0
   32.0550   34.4111   61.2516 H   0  0  0  0  0  0  0  0  0  0  0  0
  1  2  1  0  0  0  0
  1 26  1  0  0  0  0
  1 27  1  0  0  0  0
  1 28  1  0  0  0  0
  2  3  1  0  0  0  0
  3 22  2  0  0  0  0
  3  4  1  0  0  0  0
  4  5  1  0  0  0  0
  4  6  2  0  0  0  0
  5 29  1  0  0  0  0
  6  7  1  0  0  0  0
  6 30  1  0  0  0  0
  7  8  2  0  0  0  0
  7 31  1  0  0  0  0
  8  9  1  0  0  0  0
  8 22  1  0  0  0  0
  9 10  1  6  0  0  0
  9 21  1  0  0  0  0
  9 11  1  0  0  0  0
 11 12  1  0  0  0  0
 11 32  1  0  0  0  0
 12 13  2  0  0  0  0
 12 14  1  0  0  0  0
 14 19  1  0  0  0  0
 14 15  2  0  0  0  0
 15 16  1  0  0  0  0
 15 21  1  0  0  0  0
 16 17  1  0  0  0  0
 17 18  1  0  0  0  0
 17 19  2  0  0  0  0
 18 33  1  0  0  0  0
 18 34  1  0  0  0  0
 18 35  1  0  0  0  0
 19 20  1  0  0  0  0
 20 36  1  0  0  0  0
 20 37  1  0  0  0  0
 20 38  1  0  0  0  0
 21 39  1  0  0  0  0
 22 23  1  0  0  0  0
 23 24  2  0  0  0  0
 23 25  2  0  0  0  0
M  END
$$$$
