ZINC000000009590      none
 OpenBabel11202420153D

 36 37  0  0  1  0  0  0  0  0999 V2000
   29.4950   38.7534   64.1591 C   0  0  0  0  0  0  0  0  0  0  0  0
   30.2994   37.5275   63.7217 C   0  0  2  0  0  0  0  0  0  0  0  0
   29.8598   36.6301   64.1570 H   0  0  0  0  0  0  0  0  0  0  0  0
   31.7243   37.6677   64.1921 C   0  0  0  0  0  0  0  0  0  0  0  0
   32.5292   36.8003   63.9479 O   0  0  0  0  0  0  0  0  0  0  0  0
   32.0992   38.7562   64.8823 O   0  0  0  0  0  0  0  0  0  0  0  0
   32.6197   38.5411   66.2206 C   0  0  0  0  0  0  0  0  0  0  0  0
   31.5534   37.8574   67.0788 C   0  0  0  0  0  0  0  0  0  0  0  0
   32.1019   37.6310   68.4890 C   0  0  0  0  0  0  0  0  0  0  0  0
   32.4734   38.9771   69.1142 C   0  0  0  0  0  0  0  0  0  0  0  0
   33.5397   39.6609   68.2559 C   0  0  0  0  0  0  0  0  0  0  0  0
   32.9912   39.8874   66.8456 C   0  0  0  0  0  0  0  0  0  0  0  0
   30.2749   37.4207   62.2187 C   0  0  0  0  0  0  0  0  0  0  0  0
   31.2472   38.0387   61.4473 C   0  0  0  0  0  0  0  0  0  0  0  0
   31.1953   37.9143   60.0718 C   0  0  0  0  0  0  0  0  0  0  0  0
   30.2333   37.2225   59.4930 N   0  0  0  0  0  0  0  0  0  0  0  0
   29.2895   36.6259   60.1945 C   0  0  0  0  0  0  0  0  0  0  0  0
   29.2768   36.7059   61.5741 C   0  0  0  0  0  0  0  0  0  0  0  0
   29.5129   38.8306   65.2462 H   0  0  0  0  0  0  0  0  0  0  0  0
   29.9348   39.6507   63.7238 H   0  0  0  0  0  0  0  0  0  0  0  0
   28.4645   38.6520   63.8188 H   0  0  0  0  0  0  0  0  0  0  0  0
   33.5054   37.9080   66.1687 H   0  0  0  0  0  0  0  0  0  0  0  0
   30.6679   38.4907   67.1308 H   0  0  0  0  0  0  0  0  0  0  0  0
   31.2887   36.8984   66.6335 H   0  0  0  0  0  0  0  0  0  0  0  0
   32.9875   36.9977   68.4371 H   0  0  0  0  0  0  0  0  0  0  0  0
   31.3423   37.1438   69.1004 H   0  0  0  0  0  0  0  0  0  0  0  0
   32.8642   38.8157   70.1187 H   0  0  0  0  0  0  0  0  0  0  0  0
   31.5878   39.6103   69.1661 H   0  0  0  0  0  0  0  0  0  0  0  0
   34.4253   39.0276   68.2040 H   0  0  0  0  0  0  0  0  0  0  0  0
   33.8045   40.6199   68.7012 H   0  0  0  0  0  0  0  0  0  0  0  0
   33.7508   40.3745   66.2343 H   0  0  0  0  0  0  0  0  0  0  0  0
   32.1056   40.5206   66.8977 H   0  0  0  0  0  0  0  0  0  0  0  0
   32.0378   38.6063   61.9156 H   0  0  0  0  0  0  0  0  0  0  0  0
   31.9510   38.3895   59.4641 H   0  0  0  0  0  0  0  0  0  0  0  0
   28.5178   36.0679   59.6851 H   0  0  0  0  0  0  0  0  0  0  0  0
   28.5015   36.2145   62.1433 H   0  0  0  0  0  0  0  0  0  0  0  0
  1  2  1  0  0  0  0
  1 19  1  0  0  0  0
  1 20  1  0  0  0  0
  1 21  1  0  0  0  0
  2  3  1  1  0  0  0
  2  4  1  0  0  0  0
  2 13  1  0  0  0  0
  4  5  2  0  0  0  0
  4  6  1  0  0  0  0
  6  7  1  0  0  0  0
  7 12  1  0  0  0  0
  7  8  1  0  0  0  0
  7 22  1  0  0  0  0
  8  9  1  0  0  0  0
  8 23  1  0  0  0  0
  8 24  1  0  0  0  0
  9 10  1  0  0  0  0
  9 25  1  0  0  0  0
  9 26  1  0  0  0  0
 10 11  1  0  0  0  0
 10 27  1  0  0  0  0
 10 28  1  0  0  0  0
 11 12  1  0  0  0  0
 11 29  1  0  0  0  0
 11 30  1  0  0  0  0
 12 31  1  0  0  0  0
 12 32  1  0  0  0  0
 13 18  2  0  0  0  0
 13 14  1  0  0  0  0
 14 15  2  0  0  0  0
 14 33  1  0  0  0  0
 15 16  1  0  0  0  0
 15 34  1  0  0  0  0
 16 17  2  0  0  0  0
 17 18  1  0  0  0  0
 17 35  1  0  0  0  0
 18 36  1  0  0  0  0
M  END
$$$$
