ZINC000000040869      none
 OpenBabel11202420153D

 27 28  0  0  0  0  0  0  0  0999 V2000
   32.2647   33.2784   60.8103 C   0  0  0  0  0  0  0  0  0  0  0  0
   31.5340   33.6013   59.5325 C   0  0  0  0  0  0  0  0  0  0  0  0
   30.5243   32.9953   59.2415 O   0  0  0  0  0  0  0  0  0  0  0  0
   32.0441   34.6494   58.6397 C   0  0  0  0  0  0  0  0  0  0  0  0
   32.4030   34.3396   57.3225 C   0  0  0  0  0  0  0  0  0  0  0  0
   32.8806   35.3290   56.4905 C   0  0  0  0  0  0  0  0  0  0  0  0
   33.3261   34.9441   54.8574 Cl  0  0  0  0  0  0  0  0  0  0  0  0
   33.0020   36.6319   56.9503 C   0  0  0  0  0  0  0  0  0  0  0  0
   32.6571   36.9504   58.2488 C   0  0  0  0  0  0  0  0  0  0  0  0
   32.1746   35.9690   59.1014 C   0  0  0  0  0  0  0  0  0  0  0  0
   31.8307   36.2824   60.3757 O   0  0  0  0  0  0  0  0  0  0  0  0
   30.5584   36.6638   60.6129 C   0  0  0  0  0  0  0  0  0  0  0  0
   29.6553   36.2325   59.9218 O   0  0  0  0  0  0  0  0  0  0  0  0
   30.2649   37.5972   61.7026 C   0  0  0  0  0  0  0  0  0  0  0  0
   29.1071   37.6477   62.4270 C   0  0  0  0  0  0  0  0  0  0  0  0
   29.2611   38.6829   63.3614 C   0  0  0  0  0  0  0  0  0  0  0  0
   30.4863   39.2186   63.1639 C   0  0  0  0  0  0  0  0  0  0  0  0
   31.0879   38.5620   62.1637 O   0  0  0  0  0  0  0  0  0  0  0  0
   33.1409   33.9206   60.8999 H   0  0  0  0  0  0  0  0  0  0  0  0
   31.6026   33.4463   61.6597 H   0  0  0  0  0  0  0  0  0  0  0  0
   32.5789   32.2348   60.7952 H   0  0  0  0  0  0  0  0  0  0  0  0
   32.3063   33.3271   56.9592 H   0  0  0  0  0  0  0  0  0  0  0  0
   33.3727   37.4017   56.2896 H   0  0  0  0  0  0  0  0  0  0  0  0
   32.7591   37.9667   58.5997 H   0  0  0  0  0  0  0  0  0  0  0  0
   28.2422   37.0128   62.3050 H   0  0  0  0  0  0  0  0  0  0  0  0
   28.5353   38.9960   64.0973 H   0  0  0  0  0  0  0  0  0  0  0  0
   30.9102   40.0412   63.7207 H   0  0  0  0  0  0  0  0  0  0  0  0
  1  2  1  0  0  0  0
  1 19  1  0  0  0  0
  1 20  1  0  0  0  0
  1 21  1  0  0  0  0
  2  3  2  0  0  0  0
  2  4  1  0  0  0  0
  4 10  2  0  0  0  0
  4  5  1  0  0  0  0
  5  6  2  0  0  0  0
  5 22  1  0  0  0  0
  6  7  1  0  0  0  0
  6  8  1  0  0  0  0
  8  9  2  0  0  0  0
  8 23  1  0  0  0  0
  9 10  1  0  0  0  0
  9 24  1  0  0  0  0
 10 11  1  0  0  0  0
 11 12  1  0  0  0  0
 12 13  2  0  0  0  0
 12 14  1  0  0  0  0
 14 18  1  0  0  0  0
 14 15  2  0  0  0  0
 15 16  1  0  0  0  0
 15 25  1  0  0  0  0
 16 17  2  0  0  0  0
 16 26  1  0  0  0  0
 17 18  1  0  0  0  0
 17 27  1  0  0  0  0
M  END
$$$$
