ZINC000000007614      none
 OpenBabel11202420153D

 27 27  0  0  1  0  0  0  0  0999 V2000
   32.9400   39.8183   59.2962 N   0  0  0  0  0  0  0  0  0  0  0  0
   32.9124   38.5618   58.7083 C   0  0  0  0  0  0  0  0  0  0  0  0
   33.2700   38.4064   57.3746 C   0  0  0  0  0  0  0  0  0  0  0  0
   33.2369   37.1574   56.7905 C   0  0  0  0  0  0  0  0  0  0  0  0
   32.8527   36.0456   57.5273 C   0  0  0  0  0  0  0  0  0  0  0  0
   32.8173   34.4815   56.7748 Cl  0  0  0  0  0  0  0  0  0  0  0  0
   32.5001   36.1762   58.8521 C   0  0  0  0  0  0  0  0  0  0  0  0
   32.5281   37.4374   59.4608 C   0  0  0  0  0  0  0  0  0  0  0  0
   32.1536   37.5853   60.8710 C   0  0  0  0  0  0  0  0  0  0  0  0
   31.6508   38.6186   61.2598 O   0  0  0  0  0  0  0  0  0  0  0  0
   32.3932   36.4538   61.8369 C   0  0  0  0  0  0  0  0  0  0  0  0
   31.0607   36.0109   62.4442 C   0  0  2  0  0  0  0  0  0  0  0  0
   30.2902   36.0167   61.6732 H   0  0  0  0  0  0  0  0  0  0  0  0
   30.6822   36.9349   63.5216 N   0  3  0  0  0  0  0  0  0  0  0  0
   30.5879   37.8672   63.1475 H   0  0  0  0  0  0  0  0  0  0  0  0
   31.3954   36.9294   64.2353 H   0  0  0  0  0  0  0  0  0  0  0  0
   29.8034   36.6428   63.9221 H   0  0  0  0  0  0  0  0  0  0  0  0
   31.2013   34.6184   63.0030 C   0  0  0  0  0  0  0  0  0  0  0  0
   31.9881   33.8356   62.4981 O   0  0  0  0  0  0  0  0  0  0  0  0
   30.5285   34.2745   63.9598 O   0  0  0  0  0  1  0  0  0  0  0  0
   32.7706   39.9130   60.2466 H   0  0  0  0  0  0  0  0  0  0  0  0
   33.1287   40.6021   58.7567 H   0  0  0  0  0  0  0  0  0  0  0  0
   33.5701   39.2657   56.7933 H   0  0  0  0  0  0  0  0  0  0  0  0
   33.5115   37.0436   55.7522 H   0  0  0  0  0  0  0  0  0  0  0  0
   32.2027   35.3076   59.4209 H   0  0  0  0  0  0  0  0  0  0  0  0
   33.0608   36.7889   62.6309 H   0  0  0  0  0  0  0  0  0  0  0  0
   32.8485   35.6158   61.3091 H   0  0  0  0  0  0  0  0  0  0  0  0
  1  2  1  0  0  0  0
  1 21  1  0  0  0  0
  1 22  1  0  0  0  0
  2  8  2  0  0  0  0
  2  3  1  0  0  0  0
  3  4  2  0  0  0  0
  3 23  1  0  0  0  0
  4  5  1  0  0  0  0
  4 24  1  0  0  0  0
  5  6  1  0  0  0  0
  5  7  2  0  0  0  0
  7  8  1  0  0  0  0
  7 25  1  0  0  0  0
  8  9  1  0  0  0  0
  9 10  2  0  0  0  0
  9 11  1  0  0  0  0
 11 12  1  0  0  0  0
 11 26  1  0  0  0  0
 11 27  1  0  0  0  0
 12 13  1  6  0  0  0
 12 14  1  0  0  0  0
 12 18  1  0  0  0  0
 14 15  1  0  0  0  0
 14 16  1  0  0  0  0
 14 17  1  0  0  0  0
 18 19  2  0  0  0  0
 18 20  1  0  0  0  0
M  CHG  1  14   1
M  END
$$$$
