ZINC000000058067      none
 OpenBabel11202420153D

 31 33  0  0  0  0  0  0  0  0999 V2000
   32.1701   38.7702   59.1029 C   0  0  0  0  0  0  0  0  0  0  0  0
   32.3537   37.2964   58.8470 C   0  0  0  0  0  0  0  0  0  0  0  0
   31.9023   36.3718   59.7499 C   0  0  0  0  0  0  0  0  0  0  0  0
   31.2243   36.8051   60.9941 C   0  0  0  0  0  0  0  0  0  0  0  0
   31.9669   37.0391   62.1510 C   0  0  0  0  0  0  0  0  0  0  0  0
   31.3305   37.4475   63.3052 C   0  0  0  0  0  0  0  0  0  0  0  0
   29.9572   37.6139   63.3193 C   0  0  0  0  0  0  0  0  0  0  0  0
   29.2144   37.3782   62.1762 C   0  0  0  0  0  0  0  0  0  0  0  0
   29.8402   36.9750   61.0144 C   0  0  0  0  0  0  0  0  0  0  0  0
   32.0987   34.9478   59.4682 C   0  0  0  0  0  0  0  0  0  0  0  0
   31.7039   34.1123   60.2605 O   0  0  0  0  0  0  0  0  0  0  0  0
   32.7185   34.5612   58.3403 O   0  0  0  0  0  0  0  0  0  0  0  0
   33.1631   35.4657   57.4406 C   0  0  0  0  0  0  0  0  0  0  0  0
   33.7957   35.0365   56.2821 C   0  0  0  0  0  0  0  0  0  0  0  0
   34.2564   35.9635   55.3623 C   0  0  0  0  0  0  0  0  0  0  0  0
   34.8750   35.5400   54.2308 O   0  0  0  0  0  0  0  0  0  0  0  0
   34.0900   37.3284   55.5906 C   0  0  0  0  0  0  0  0  0  0  0  0
   33.4714   37.7683   56.7232 C   0  0  0  0  0  0  0  0  0  0  0  0
   32.9977   36.8442   57.6669 C   0  0  0  0  0  0  0  0  0  0  0  0
   33.0323   39.1546   59.6475 H   0  0  0  0  0  0  0  0  0  0  0  0
   32.0773   39.2953   58.1521 H   0  0  0  0  0  0  0  0  0  0  0  0
   31.2677   38.9267   59.6938 H   0  0  0  0  0  0  0  0  0  0  0  0
   33.0386   36.9053   62.1424 H   0  0  0  0  0  0  0  0  0  0  0  0
   31.9050   37.6330   64.2007 H   0  0  0  0  0  0  0  0  0  0  0  0
   29.4628   37.9293   64.2263 H   0  0  0  0  0  0  0  0  0  0  0  0
   28.1427   37.5104   62.1930 H   0  0  0  0  0  0  0  0  0  0  0  0
   29.2594   36.7917   60.1225 H   0  0  0  0  0  0  0  0  0  0  0  0
   33.9280   33.9805   56.0978 H   0  0  0  0  0  0  0  0  0  0  0  0
   34.9459   34.5784   54.1575 H   0  0  0  0  0  0  0  0  0  0  0  0
   34.4536   38.0419   54.8660 H   0  0  0  0  0  0  0  0  0  0  0  0
   33.3458   38.8273   56.8937 H   0  0  0  0  0  0  0  0  0  0  0  0
  1  2  1  0  0  0  0
  1 20  1  0  0  0  0
  1 21  1  0  0  0  0
  1 22  1  0  0  0  0
  2 19  1  0  0  0  0
  2  3  2  0  0  0  0
  3  4  1  0  0  0  0
  3 10  1  0  0  0  0
  4  9  2  0  0  0  0
  4  5  1  0  0  0  0
  5  6  2  0  0  0  0
  5 23  1  0  0  0  0
  6  7  1  0  0  0  0
  6 24  1  0  0  0  0
  7  8  2  0  0  0  0
  7 25  1  0  0  0  0
  8  9  1  0  0  0  0
  8 26  1  0  0  0  0
  9 27  1  0  0  0  0
 10 11  2  0  0  0  0
 10 12  1  0  0  0  0
 12 13  1  0  0  0  0
 13 19  2  0  0  0  0
 13 14  1  0  0  0  0
 14 15  2  0  0  0  0
 14 28  1  0  0  0  0
 15 16  1  0  0  0  0
 15 17  1  0  0  0  0
 16 29  1  0  0  0  0
 17 18  2  0  0  0  0
 17 30  1  0  0  0  0
 18 19  1  0  0  0  0
 18 31  1  0  0  0  0
M  END
$$$$
