ZINC000000034463      none
 OpenBabel11202420153D

 32 33  0  0  0  0  0  0  0  0999 V2000
   31.0294   35.8757   65.2790 C   0  0  0  0  0  0  0  0  0  0  0  0
   31.1439   37.0787   64.5165 O   0  0  0  0  0  0  0  0  0  0  0  0
   31.5762   36.9582   63.2400 C   0  0  0  0  0  0  0  0  0  0  0  0
   31.7094   38.0381   62.4798 N   0  0  0  0  0  0  0  0  0  0  0  0
   32.1296   37.9189   61.2242 C   0  0  0  0  0  0  0  0  0  0  0  0
   32.2643   39.0418   60.4310 N   0  0  0  0  0  0  0  0  0  0  0  0
   32.7063   38.9159   59.1102 C   0  0  0  0  0  0  0  0  0  0  0  0
   33.4226   39.9463   58.5149 C   0  0  0  0  0  0  0  0  0  0  0  0
   33.8581   39.8186   57.2105 C   0  0  0  0  0  0  0  0  0  0  0  0
   33.5822   38.6663   56.4975 C   0  0  0  0  0  0  0  0  0  0  0  0
   32.8647   37.6407   57.0855 C   0  0  0  0  0  0  0  0  0  0  0  0
   32.4305   37.7601   58.3911 C   0  0  0  0  0  0  0  0  0  0  0  0
   32.4255   36.7187   60.7342 N   0  0  0  0  0  0  0  0  0  0  0  0
   32.2962   35.6406   61.4971 C   0  0  0  0  0  0  0  0  0  0  0  0
   32.5973   34.4193   60.9985 O   0  0  0  0  0  0  0  0  0  0  0  0
   32.4059   34.2260   59.5956 C   0  0  0  0  0  0  0  0  0  0  0  0
   30.9837   33.7235   59.3394 C   0  0  0  0  0  0  0  0  0  0  0  0
   30.0639   34.6668   59.8100 F   0  0  0  0  0  0  0  0  0  0  0  0
   30.7963   33.5344   57.9659 F   0  0  0  0  0  0  0  0  0  0  0  0
   30.7903   32.5099   60.0079 F   0  0  0  0  0  0  0  0  0  0  0  0
   31.8719   35.7602   62.7498 N   0  0  0  0  0  0  0  0  0  0  0  0
   30.6739   36.1133   66.2816 H   0  0  0  0  0  0  0  0  0  0  0  0
   30.3228   35.2032   64.7928 H   0  0  0  0  0  0  0  0  0  0  0  0
   32.0046   35.3928   65.3444 H   0  0  0  0  0  0  0  0  0  0  0  0
   32.0521   39.9177   60.7900 H   0  0  0  0  0  0  0  0  0  0  0  0
   33.6385   40.8465   59.0712 H   0  0  0  0  0  0  0  0  0  0  0  0
   34.4151   40.6194   56.7469 H   0  0  0  0  0  0  0  0  0  0  0  0
   33.9238   38.5689   55.4775 H   0  0  0  0  0  0  0  0  0  0  0  0
   32.6470   36.7440   56.5245 H   0  0  0  0  0  0  0  0  0  0  0  0
   31.8738   36.9571   58.8513 H   0  0  0  0  0  0  0  0  0  0  0  0
   32.5565   35.1717   59.0748 H   0  0  0  0  0  0  0  0  0  0  0  0
   33.1225   33.4911   59.2291 H   0  0  0  0  0  0  0  0  0  0  0  0
  1  2  1  0  0  0  0
  1 22  1  0  0  0  0
  1 23  1  0  0  0  0
  1 24  1  0  0  0  0
  2  3  1  0  0  0  0
  3 21  2  0  0  0  0
  3  4  1  0  0  0  0
  4  5  2  0  0  0  0
  5  6  1  0  0  0  0
  5 13  1  0  0  0  0
  6  7  1  0  0  0  0
  6 25  1  0  0  0  0
  7 12  2  0  0  0  0
  7  8  1  0  0  0  0
  8  9  2  0  0  0  0
  8 26  1  0  0  0  0
  9 10  1  0  0  0  0
  9 27  1  0  0  0  0
 10 11  2  0  0  0  0
 10 28  1  0  0  0  0
 11 12  1  0  0  0  0
 11 29  1  0  0  0  0
 12 30  1  0  0  0  0
 13 14  2  0  0  0  0
 14 15  1  0  0  0  0
 14 21  1  0  0  0  0
 15 16  1  0  0  0  0
 16 17  1  0  0  0  0
 16 31  1  0  0  0  0
 16 32  1  0  0  0  0
 17 18  1  0  0  0  0
 17 19  1  0  0  0  0
 17 20  1  0  0  0  0
M  END
$$$$
