ZINC000000033809      none
 OpenBabel11202420153D

 43 45  0  0  0  0  0  0  0  0999 V2000
   29.6483   40.1374   66.4660 C   0  0  0  0  0  0  0  0  0  0  0  0
   29.2578   38.7771   65.8845 C   0  0  0  0  0  0  0  0  0  0  0  0
   30.0249   38.5249   64.7055 O   0  0  0  0  0  0  0  0  0  0  0  0
   29.5034   38.9459   63.5330 C   0  0  0  0  0  0  0  0  0  0  0  0
   28.4252   39.5121   63.5144 O   0  0  0  0  0  0  0  0  0  0  0  0
   30.2048   38.7305   62.3345 C   0  0  0  0  0  0  0  0  0  0  0  0
   30.5078   37.4588   61.9399 C   0  0  0  0  0  0  0  0  0  0  0  0
   30.1406   36.3528   62.6944 N   0  0  0  0  0  0  0  0  0  0  0  0
   31.1143   35.2486   62.7445 C   0  0  0  0  0  0  0  0  0  0  0  0
   32.4273   35.7504   63.3486 C   0  0  0  0  0  0  0  0  0  0  0  0
   30.5551   34.1110   63.6014 C   0  0  0  0  0  0  0  0  0  0  0  0
   31.3646   34.7438   61.3241 C   0  0  0  0  0  0  0  0  0  0  0  0
   31.6553   35.8874   60.3893 C   0  0  0  0  0  0  0  0  0  0  0  0
   32.3463   35.6438   59.2184 C   0  0  0  0  0  0  0  0  0  0  0  0
   32.6221   36.6793   58.3352 C   0  0  0  0  0  0  0  0  0  0  0  0
   32.2006   37.9754   58.6231 C   0  0  0  0  0  0  0  0  0  0  0  0
   31.5117   38.2302   59.7948 C   0  0  0  0  0  0  0  0  0  0  0  0
   31.2395   37.1872   60.6816 C   0  0  0  0  0  0  0  0  0  0  0  0
   32.4538   38.9987   57.7622 O   0  0  0  0  0  0  0  0  0  0  0  0
   33.4697   38.7753   56.7783 C   0  0  0  0  0  0  0  0  0  0  0  0
   33.2366   37.3935   56.1525 C   0  0  0  0  0  0  0  0  0  0  0  0
   33.3094   36.4120   57.1921 O   0  0  0  0  0  0  0  0  0  0  0  0
   29.0631   40.3297   67.3652 H   0  0  0  0  0  0  0  0  0  0  0  0
   30.7091   40.1344   66.7163 H   0  0  0  0  0  0  0  0  0  0  0  0
   29.4507   40.9170   65.7302 H   0  0  0  0  0  0  0  0  0  0  0  0
   28.1969   38.7800   65.6340 H   0  0  0  0  0  0  0  0  0  0  0  0
   29.4552   37.9974   66.6202 H   0  0  0  0  0  0  0  0  0  0  0  0
   30.5042   39.5707   61.7255 H   0  0  0  0  0  0  0  0  0  0  0  0
   29.2917   36.3096   63.1617 H   0  0  0  0  0  0  0  0  0  0  0  0
   32.2453   36.1191   64.3580 H   0  0  0  0  0  0  0  0  0  0  0  0
   33.1466   34.9322   63.3849 H   0  0  0  0  0  0  0  0  0  0  0  0
   32.8255   36.5572   62.7332 H   0  0  0  0  0  0  0  0  0  0  0  0
   29.6225   33.7526   63.1657 H   0  0  0  0  0  0  0  0  0  0  0  0
   31.2767   33.2948   63.6373 H   0  0  0  0  0  0  0  0  0  0  0  0
   30.3679   34.4753   64.6114 H   0  0  0  0  0  0  0  0  0  0  0  0
   32.2148   34.0619   61.3310 H   0  0  0  0  0  0  0  0  0  0  0  0
   30.4811   34.2107   60.9726 H   0  0  0  0  0  0  0  0  0  0  0  0
   32.6742   34.6408   58.9880 H   0  0  0  0  0  0  0  0  0  0  0  0
   31.1851   39.2339   60.0233 H   0  0  0  0  0  0  0  0  0  0  0  0
   33.4097   39.5430   56.0069 H   0  0  0  0  0  0  0  0  0  0  0  0
   34.4517   38.8047   57.2505 H   0  0  0  0  0  0  0  0  0  0  0  0
   32.2519   37.3626   55.6863 H   0  0  0  0  0  0  0  0  0  0  0  0
   34.0040   37.1948   55.4043 H   0  0  0  0  0  0  0  0  0  0  0  0
  1  2  1  0  0  0  0
  1 23  1  0  0  0  0
  1 24  1  0  0  0  0
  1 25  1  0  0  0  0
  2  3  1  0  0  0  0
  2 26  1  0  0  0  0
  2 27  1  0  0  0  0
  3  4  1  0  0  0  0
  4  5  2  0  0  0  0
  4  6  1  0  0  0  0
  6  7  2  0  0  0  0
  6 28  1  0  0  0  0
  7 18  1  0  0  0  0
  7  8  1  0  0  0  0
  8  9  1  0  0  0  0
  8 29  1  0  0  0  0
  9 10  1  0  0  0  0
  9 11  1  0  0  0  0
  9 12  1  0  0  0  0
 10 30  1  0  0  0  0
 10 31  1  0  0  0  0
 10 32  1  0  0  0  0
 11 33  1  0  0  0  0
 11 34  1  0  0  0  0
 11 35  1  0  0  0  0
 12 13  1  0  0  0  0
 12 36  1  0  0  0  0
 12 37  1  0  0  0  0
 13 18  2  0  0  0  0
 13 14  1  0  0  0  0
 14 15  2  0  0  0  0
 14 38  1  0  0  0  0
 15 22  1  0  0  0  0
 15 16  1  0  0  0  0
 16 17  2  0  0  0  0
 16 19  1  0  0  0  0
 17 18  1  0  0  0  0
 17 39  1  0  0  0  0
 19 20  1  0  0  0  0
 20 21  1  0  0  0  0
 20 40  1  0  0  0  0
 20 41  1  0  0  0  0
 21 22  1  0  0  0  0
 21 42  1  0  0  0  0
 21 43  1  0  0  0  0
M  END
$$$$
