ZINC000000030449      none
 OpenBabel11202420163D

 36 36  0  0  0  0  0  0  0  0999 V2000
   34.2093   36.9936   54.2584 C   0  0  0  0  0  0  0  0  0  0  0  0
   34.1149   38.2956   54.8397 O   0  0  0  0  0  0  0  0  0  0  0  0
   33.6945   38.3661   56.1308 C   0  0  0  0  0  0  0  0  0  0  0  0
   33.5850   39.5989   56.7577 C   0  0  0  0  0  0  0  0  0  0  0  0
   33.1584   39.6738   58.0697 C   0  0  0  0  0  0  0  0  0  0  0  0
   32.8382   38.5159   58.7629 C   0  0  0  0  0  0  0  0  0  0  0  0
   32.4055   38.5921   60.0954 N   0  0  0  0  0  0  0  0  0  0  0  0
   31.1888   38.1237   60.4366 C   0  0  0  0  0  0  0  0  0  0  0  0
   30.4678   37.6363   59.5918 O   0  0  0  0  0  0  0  0  0  0  0  0
   30.7240   38.2057   61.8679 C   0  0  0  0  0  0  0  0  0  0  0  0
   31.6862   37.4214   62.7623 C   0  0  0  0  0  0  0  0  0  0  0  0
   31.2144   37.5046   64.2154 C   0  0  0  0  0  0  0  0  0  0  0  0
   31.7161   35.9574   62.3189 C   0  0  0  0  0  0  0  0  0  0  0  0
   32.9471   37.2774   58.1349 C   0  0  0  0  0  0  0  0  0  0  0  0
   32.6342   36.1407   58.8122 O   0  0  0  0  0  0  0  0  0  0  0  0
   32.7693   34.9062   58.1053 C   0  0  0  0  0  0  0  0  0  0  0  0
   33.3800   37.2052   56.8212 C   0  0  0  0  0  0  0  0  0  0  0  0
   34.9152   36.3909   54.8296 H   0  0  0  0  0  0  0  0  0  0  0  0
   33.2290   36.5171   54.2737 H   0  0  0  0  0  0  0  0  0  0  0  0
   34.5552   37.0798   53.2284 H   0  0  0  0  0  0  0  0  0  0  0  0
   33.8340   40.5015   56.2193 H   0  0  0  0  0  0  0  0  0  0  0  0
   33.0747   40.6346   58.5560 H   0  0  0  0  0  0  0  0  0  0  0  0
   32.9822   38.9819   60.7710 H   0  0  0  0  0  0  0  0  0  0  0  0
   30.7029   39.2487   62.1838 H   0  0  0  0  0  0  0  0  0  0  0  0
   29.7236   37.7809   61.9499 H   0  0  0  0  0  0  0  0  0  0  0  0
   32.6865   37.8464   62.6803 H   0  0  0  0  0  0  0  0  0  0  0  0
   31.8998   36.9458   64.8525 H   0  0  0  0  0  0  0  0  0  0  0  0
   31.1931   38.5476   64.5313 H   0  0  0  0  0  0  0  0  0  0  0  0
   30.2139   37.0796   64.2973 H   0  0  0  0  0  0  0  0  0  0  0  0
   32.0523   35.8982   61.2837 H   0  0  0  0  0  0  0  0  0  0  0  0
   32.4015   35.3986   62.9561 H   0  0  0  0  0  0  0  0  0  0  0  0
   30.7156   35.5324   62.4009 H   0  0  0  0  0  0  0  0  0  0  0  0
   32.4888   34.0805   58.7591 H   0  0  0  0  0  0  0  0  0  0  0  0
   33.8041   34.7816   57.7862 H   0  0  0  0  0  0  0  0  0  0  0  0
   32.1182   34.9149   57.2311 H   0  0  0  0  0  0  0  0  0  0  0  0
   33.4694   36.2457   56.3337 H   0  0  0  0  0  0  0  0  0  0  0  0
  1  2  1  0  0  0  0
  1 18  1  0  0  0  0
  1 19  1  0  0  0  0
  1 20  1  0  0  0  0
  2  3  1  0  0  0  0
  3 17  2  0  0  0  0
  3  4  1  0  0  0  0
  4  5  2  0  0  0  0
  4 21  1  0  0  0  0
  5  6  1  0  0  0  0
  5 22  1  0  0  0  0
  6  7  1  0  0  0  0
  6 14  2  0  0  0  0
  7  8  1  0  0  0  0
  7 23  1  0  0  0  0
  8  9  2  0  0  0  0
  8 10  1  0  0  0  0
 10 11  1  0  0  0  0
 10 24  1  0  0  0  0
 10 25  1  0  0  0  0
 11 12  1  0  0  0  0
 11 13  1  0  0  0  0
 11 26  1  0  0  0  0
 12 27  1  0  0  0  0
 12 28  1  0  0  0  0
 12 29  1  0  0  0  0
 13 30  1  0  0  0  0
 13 31  1  0  0  0  0
 13 32  1  0  0  0  0
 14 15  1  0  0  0  0
 14 17  1  0  0  0  0
 15 16  1  0  0  0  0
 16 33  1  0  0  0  0
 16 34  1  0  0  0  0
 16 35  1  0  0  0  0
 17 36  1  0  0  0  0
M  END
$$$$
