ZINC000000033459      none
 OpenBabel11202420153D

 23 24  0  0  0  0  0  0  0  0999 V2000
   33.5038   40.7953   59.1403 N   0  0  0  0  0  0  0  0  0  0  0  0
   33.4539   39.8394   58.1324 C   0  0  0  0  0  0  0  0  0  0  0  0
   33.9834   39.9607   56.9559 N   0  0  0  0  0  0  0  0  0  0  0  0
   33.8066   38.8882   56.1096 N   0  0  0  0  0  0  0  0  0  0  0  0
   33.1328   37.8941   56.5981 C   0  0  0  0  0  0  0  0  0  0  0  0
   32.7553   36.3992   55.7452 S   0  0  0  0  0  0  0  0  0  0  0  0
   34.1601   36.2095   54.6133 C   0  0  0  0  0  0  0  0  0  0  0  0
   34.5087   37.5682   53.9713 C   0  0  0  0  0  0  0  0  0  0  0  0
   34.9110   37.2102   52.5191 C   0  0  0  0  0  0  0  0  0  0  0  0
   33.9168   36.0786   52.1581 C   0  0  0  0  0  0  0  0  0  0  0  0
   33.7838   35.2623   53.4603 C   0  0  0  0  0  0  0  0  0  0  0  0
   32.6548   38.2752   58.2490 S   0  0  0  0  0  0  0  0  0  0  0  0
   33.0748   40.6237   59.9933 H   0  0  0  0  0  0  0  0  0  0  0  0
   33.9676   41.6340   58.9908 H   0  0  0  0  0  0  0  0  0  0  0  0
   35.0229   35.8177   55.1518 H   0  0  0  0  0  0  0  0  0  0  0  0
   33.6398   38.2261   53.9752 H   0  0  0  0  0  0  0  0  0  0  0  0
   35.3436   38.0343   54.4945 H   0  0  0  0  0  0  0  0  0  0  0  0
   35.9386   36.8483   52.4809 H   0  0  0  0  0  0  0  0  0  0  0  0
   34.7795   38.0657   51.8567 H   0  0  0  0  0  0  0  0  0  0  0  0
   34.3200   35.4575   51.3581 H   0  0  0  0  0  0  0  0  0  0  0  0
   32.9518   36.4940   51.8680 H   0  0  0  0  0  0  0  0  0  0  0  0
   34.4646   34.4113   53.4388 H   0  0  0  0  0  0  0  0  0  0  0  0
   32.7574   34.9160   53.5814 H   0  0  0  0  0  0  0  0  0  0  0  0
  1  2  1  0  0  0  0
  1 13  1  0  0  0  0
  1 14  1  0  0  0  0
  2 12  1  0  0  0  0
  2  3  2  0  0  0  0
  3  4  1  0  0  0  0
  4  5  2  0  0  0  0
  5  6  1  0  0  0  0
  5 12  1  0  0  0  0
  6  7  1  0  0  0  0
  7 11  1  0  0  0  0
  7  8  1  0  0  0  0
  7 15  1  0  0  0  0
  8  9  1  0  0  0  0
  8 16  1  0  0  0  0
  8 17  1  0  0  0  0
  9 10  1  0  0  0  0
  9 18  1  0  0  0  0
  9 19  1  0  0  0  0
 10 11  1  0  0  0  0
 10 20  1  0  0  0  0
 10 21  1  0  0  0  0
 11 22  1  0  0  0  0
 11 23  1  0  0  0  0
M  END
$$$$
