ZINC000000005602      none
 OpenBabel11202420153D

 36 38  0  0  0  0  0  0  0  0999 V2000
   32.6849   37.4253   65.6878 O   0  0  0  0  0  0  0  0  0  0  0  0
   31.7670   36.8213   66.2013 C   0  0  0  0  0  0  0  0  0  0  0  0
   30.4555   36.6816   65.4724 C   0  0  0  0  0  0  0  0  0  0  0  0
   30.5435   37.3565   64.1752 N   0  0  0  0  0  0  0  0  0  0  0  0
   30.2131   38.6459   64.0534 C   0  0  0  0  0  0  0  0  0  0  0  0
   29.8208   39.3870   64.9356 O   0  0  0  0  0  0  0  0  0  0  0  0
   30.4607   39.0578   62.3484 S   0  0  0  0  0  0  0  0  0  0  0  0
   31.0059   37.4395   61.8863 C   0  0  0  0  0  0  0  0  0  0  0  0
   31.4107   36.9022   60.6774 C   0  0  0  0  0  0  0  0  0  0  0  0
   31.7922   35.5767   60.6057 C   0  0  0  0  0  0  0  0  0  0  0  0
   31.7638   34.7972   61.7509 C   0  0  0  0  0  0  0  0  0  0  0  0
   32.2414   33.1303   61.6655 Cl  0  0  0  0  0  0  0  0  0  0  0  0
   31.3623   35.3283   62.9550 C   0  0  0  0  0  0  0  0  0  0  0  0
   30.9708   36.6726   63.0511 C   0  0  0  0  0  0  0  0  0  0  0  0
   31.9201   36.2752   67.4240 N   0  0  0  0  0  0  0  0  0  0  0  0
   30.8153   35.5459   68.0617 C   0  0  0  0  0  0  0  0  0  0  0  0
   30.5655   36.1349   69.4488 C   0  0  0  0  0  0  0  0  0  0  0  0
   31.8706   36.1238   70.2480 C   0  0  0  0  0  0  0  0  0  0  0  0
   31.6321   36.6476   71.5559 O   0  0  0  0  0  0  0  0  0  0  0  0
   32.9145   36.9871   69.5355 C   0  0  0  0  0  0  0  0  0  0  0  0
   33.1928   36.4030   68.1470 C   0  0  0  0  0  0  0  0  0  0  0  0
   29.6605   37.1349   66.0646 H   0  0  0  0  0  0  0  0  0  0  0  0
   30.2364   35.6250   65.3182 H   0  0  0  0  0  0  0  0  0  0  0  0
   31.4242   37.5174   59.7899 H   0  0  0  0  0  0  0  0  0  0  0  0
   32.1089   35.1512   59.6649 H   0  0  0  0  0  0  0  0  0  0  0  0
   31.3478   34.7035   63.8359 H   0  0  0  0  0  0  0  0  0  0  0  0
   29.9144   35.6452   67.4563 H   0  0  0  0  0  0  0  0  0  0  0  0
   31.0797   34.4928   68.1571 H   0  0  0  0  0  0  0  0  0  0  0  0
   29.8155   35.5390   69.9688 H   0  0  0  0  0  0  0  0  0  0  0  0
   30.2095   37.1603   69.3478 H   0  0  0  0  0  0  0  0  0  0  0  0
   32.2388   35.1010   70.3280 H   0  0  0  0  0  0  0  0  0  0  0  0
   32.4173   36.6697   72.1199 H   0  0  0  0  0  0  0  0  0  0  0  0
   33.8362   36.9976   70.1172 H   0  0  0  0  0  0  0  0  0  0  0  0
   32.5372   38.0046   69.4333 H   0  0  0  0  0  0  0  0  0  0  0  0
   33.6549   35.4211   68.2495 H   0  0  0  0  0  0  0  0  0  0  0  0
   33.8608   37.0655   67.5967 H   0  0  0  0  0  0  0  0  0  0  0  0
  1  2  2  0  0  0  0
  2  3  1  0  0  0  0
  2 15  1  0  0  0  0
  3  4  1  0  0  0  0
  3 22  1  0  0  0  0
  3 23  1  0  0  0  0
  4 14  1  0  0  0  0
  4  5  1  0  0  0  0
  5  6  2  0  0  0  0
  5  7  1  0  0  0  0
  7  8  1  0  0  0  0
  8 14  2  0  0  0  0
  8  9  1  0  0  0  0
  9 10  2  0  0  0  0
  9 24  1  0  0  0  0
 10 11  1  0  0  0  0
 10 25  1  0  0  0  0
 11 12  1  0  0  0  0
 11 13  2  0  0  0  0
 13 14  1  0  0  0  0
 13 26  1  0  0  0  0
 15 21  1  0  0  0  0
 15 16  1  0  0  0  0
 16 17  1  0  0  0  0
 16 27  1  0  0  0  0
 16 28  1  0  0  0  0
 17 18  1  0  0  0  0
 17 29  1  0  0  0  0
 17 30  1  0  0  0  0
 18 19  1  0  0  0  0
 18 20  1  0  0  0  0
 18 31  1  0  0  0  0
 19 32  1  0  0  0  0
 20 21  1  0  0  0  0
 20 33  1  0  0  0  0
 20 34  1  0  0  0  0
 21 35  1  0  0  0  0
 21 36  1  0  0  0  0
M  END
$$$$
