ZINC000000040048      none
 OpenBabel11202420153D

 24 25  0  0  0  0  0  0  0  0999 V2000
   31.3887   36.7248   63.0112 C   0  0  0  0  0  0  0  0  0  0  0  0
   31.8289   37.2174   61.6565 C   0  0  0  0  0  0  0  0  0  0  0  0
   32.0268   38.4003   61.4764 O   0  0  0  0  0  0  0  0  0  0  0  0
   32.0026   36.3433   60.6455 N   0  0  0  0  0  0  0  0  0  0  0  0
   32.4136   36.7962   59.3995 C   0  0  0  0  0  0  0  0  0  0  0  0
   32.7375   38.4226   59.0217 S   0  0  0  0  0  0  0  0  0  0  0  0
   33.1563   38.0388   57.3523 C   0  0  0  0  0  0  0  0  0  0  0  0
   33.0447   36.7319   57.1275 C   0  0  0  0  0  0  0  0  0  0  0  0
   32.6180   35.9972   58.3142 C   0  0  0  0  0  0  0  0  0  0  0  0
   32.4296   34.5778   58.3355 C   0  0  0  0  0  0  0  0  0  0  0  0
   32.2802   33.4517   58.3524 N   0  0  0  0  0  0  0  0  0  0  0  0
   33.4089   36.4130   55.6802 C   0  0  0  0  0  0  0  0  0  0  0  0
   34.1827   37.6507   55.1836 C   0  0  0  0  0  0  0  0  0  0  0  0
   33.6088   38.7596   56.0884 C   0  0  0  0  0  0  0  0  0  0  0  0
   32.2651   36.4836   63.6125 H   0  0  0  0  0  0  0  0  0  0  0  0
   30.8088   37.5018   63.5094 H   0  0  0  0  0  0  0  0  0  0  0  0
   30.7736   35.8331   62.8912 H   0  0  0  0  0  0  0  0  0  0  0  0
   31.8443   35.3972   60.7896 H   0  0  0  0  0  0  0  0  0  0  0  0
   34.0422   35.5269   55.6351 H   0  0  0  0  0  0  0  0  0  0  0  0
   32.5072   36.2643   55.0862 H   0  0  0  0  0  0  0  0  0  0  0  0
   35.2542   37.5316   55.3438 H   0  0  0  0  0  0  0  0  0  0  0  0
   33.9667   37.8512   54.1342 H   0  0  0  0  0  0  0  0  0  0  0  0
   32.7609   39.2435   55.6036 H   0  0  0  0  0  0  0  0  0  0  0  0
   34.3800   39.4926   56.3254 H   0  0  0  0  0  0  0  0  0  0  0  0
  1  2  1  0  0  0  0
  1 15  1  0  0  0  0
  1 16  1  0  0  0  0
  1 17  1  0  0  0  0
  2  3  2  0  0  0  0
  2  4  1  0  0  0  0
  4  5  1  0  0  0  0
  4 18  1  0  0  0  0
  5  9  2  0  0  0  0
  5  6  1  0  0  0  0
  6  7  1  0  0  0  0
  7 14  1  0  0  0  0
  7  8  2  0  0  0  0
  8  9  1  0  0  0  0
  8 12  1  0  0  0  0
  9 10  1  0  0  0  0
 10 11  3  0  0  0  0
 12 13  1  0  0  0  0
 12 19  1  0  0  0  0
 12 20  1  0  0  0  0
 13 14  1  0  0  0  0
 13 21  1  0  0  0  0
 13 22  1  0  0  0  0
 14 23  1  0  0  0  0
 14 24  1  0  0  0  0
M  END
$$$$
