ZINC000000029806      none
 OpenBabel11202420163D

 34 34  0  0  0  0  0  0  0  0999 V2000
   30.7887   33.0539   59.4368 C   0  0  0  0  0  0  0  0  0  0  0  0
   32.0531   33.6750   60.0341 C   0  0  0  0  0  0  0  0  0  0  0  0
   32.5923   34.6572   59.1107 O   0  0  0  0  0  0  0  0  0  0  0  0
   32.1545   35.9250   59.2416 C   0  0  0  0  0  0  0  0  0  0  0  0
   31.3442   36.2020   60.1037 O   0  0  0  0  0  0  0  0  0  0  0  0
   32.6582   36.9755   58.3389 C   0  0  0  0  0  0  0  0  0  0  0  0
   32.7550   38.2970   58.7831 C   0  0  0  0  0  0  0  0  0  0  0  0
   33.2218   39.2753   57.9327 C   0  0  0  0  0  0  0  0  0  0  0  0
   33.6015   38.9552   56.6389 C   0  0  0  0  0  0  0  0  0  0  0  0
   33.5166   37.6537   56.1875 C   0  0  0  0  0  0  0  0  0  0  0  0
   33.0490   36.6541   57.0301 C   0  0  0  0  0  0  0  0  0  0  0  0
   32.9631   35.3402   56.5769 N   0  0  0  0  0  0  0  0  0  0  0  0
   33.8272   34.8908   55.6451 C   0  0  0  0  0  0  0  0  0  0  0  0
   34.6795   35.6308   55.2017 O   0  0  0  0  0  0  0  0  0  0  0  0
   33.7379   33.4672   55.1590 C   0  0  0  0  0  0  0  0  0  0  0  0
   33.4862   33.4585   53.6499 C   0  0  0  0  0  0  0  0  0  0  0  0
   35.0507   32.7419   55.4612 C   0  0  0  0  0  0  0  0  0  0  0  0
   30.0478   33.8342   59.2629 H   0  0  0  0  0  0  0  0  0  0  0  0
   31.0339   32.5684   58.4922 H   0  0  0  0  0  0  0  0  0  0  0  0
   30.3840   32.3165   60.1300 H   0  0  0  0  0  0  0  0  0  0  0  0
   32.7940   32.8947   60.2082 H   0  0  0  0  0  0  0  0  0  0  0  0
   31.8080   34.1605   60.9788 H   0  0  0  0  0  0  0  0  0  0  0  0
   32.4604   38.5518   59.7904 H   0  0  0  0  0  0  0  0  0  0  0  0
   33.2925   40.2968   58.2761 H   0  0  0  0  0  0  0  0  0  0  0  0
   33.9665   39.7290   55.9798 H   0  0  0  0  0  0  0  0  0  0  0  0
   33.8145   37.4124   55.1778 H   0  0  0  0  0  0  0  0  0  0  0  0
   32.2813   34.7484   56.9316 H   0  0  0  0  0  0  0  0  0  0  0  0
   32.9175   32.9605   55.6672 H   0  0  0  0  0  0  0  0  0  0  0  0
   34.3065   33.9653   53.1417 H   0  0  0  0  0  0  0  0  0  0  0  0
   33.4216   32.4288   53.2982 H   0  0  0  0  0  0  0  0  0  0  0  0
   32.5508   33.9752   53.4347 H   0  0  0  0  0  0  0  0  0  0  0  0
   34.9862   31.7122   55.1095 H   0  0  0  0  0  0  0  0  0  0  0  0
   35.8711   33.2486   54.9531 H   0  0  0  0  0  0  0  0  0  0  0  0
   35.2301   32.7481   56.5363 H   0  0  0  0  0  0  0  0  0  0  0  0
  1  2  1  0  0  0  0
  1 18  1  0  0  0  0
  1 19  1  0  0  0  0
  1 20  1  0  0  0  0
  2  3  1  0  0  0  0
  2 21  1  0  0  0  0
  2 22  1  0  0  0  0
  3  4  1  0  0  0  0
  4  5  2  0  0  0  0
  4  6  1  0  0  0  0
  6 11  2  0  0  0  0
  6  7  1  0  0  0  0
  7  8  2  0  0  0  0
  7 23  1  0  0  0  0
  8  9  1  0  0  0  0
  8 24  1  0  0  0  0
  9 10  2  0  0  0  0
  9 25  1  0  0  0  0
 10 11  1  0  0  0  0
 10 26  1  0  0  0  0
 11 12  1  0  0  0  0
 12 13  1  0  0  0  0
 12 27  1  0  0  0  0
 13 14  2  0  0  0  0
 13 15  1  0  0  0  0
 15 16  1  0  0  0  0
 15 17  1  0  0  0  0
 15 28  1  0  0  0  0
 16 29  1  0  0  0  0
 16 30  1  0  0  0  0
 16 31  1  0  0  0  0
 17 32  1  0  0  0  0
 17 33  1  0  0  0  0
 17 34  1  0  0  0  0
M  END
$$$$
