ZINC000000056612      none
 OpenBabel11202420153D

 32 32  0  0  0  0  0  0  0  0999 V2000
   32.1867   36.8734   63.2146 C   0  0  0  0  0  0  0  0  0  0  0  0
   32.5983   36.4033   61.9039 O   0  0  0  0  0  0  0  0  0  0  0  0
   31.7044   36.5226   60.9027 C   0  0  0  0  0  0  0  0  0  0  0  0
   30.6108   37.0062   61.1188 O   0  0  0  0  0  0  0  0  0  0  0  0
   32.0533   36.0661   59.5444 C   0  0  0  0  0  0  0  0  0  0  0  0
   31.7840   34.7502   59.1573 C   0  0  0  0  0  0  0  0  0  0  0  0
   32.1124   34.3250   57.8840 C   0  0  0  0  0  0  0  0  0  0  0  0
   31.8559   33.0433   57.5085 O   0  0  0  0  0  0  0  0  0  0  0  0
   30.5845   32.7849   56.9094 C   0  0  0  0  0  0  0  0  0  0  0  0
   32.7109   35.2063   56.9870 C   0  0  0  0  0  0  0  0  0  0  0  0
   33.0327   34.7855   55.7356 O   0  0  0  0  0  0  0  0  0  0  0  0
   34.3355   34.2272   55.5538 C   0  0  0  0  0  0  0  0  0  0  0  0
   32.9801   36.5174   57.3699 C   0  0  0  0  0  0  0  0  0  0  0  0
   33.5647   37.3754   56.4912 O   0  0  0  0  0  0  0  0  0  0  0  0
   32.8639   37.6336   55.2729 C   0  0  0  0  0  0  0  0  0  0  0  0
   32.6538   36.9481   58.6421 C   0  0  0  0  0  0  0  0  0  0  0  0
   32.9399   38.3425   59.0484 N   0  0  0  0  0  0  0  0  0  0  0  0
   32.6519   38.7214   60.1696 O   0  0  0  0  0  0  0  0  0  0  0  0
   33.4634   39.1109   58.2616 O   0  0  0  0  0  0  0  0  0  0  0  0
   32.9973   36.7195   63.9268 H   0  0  0  0  0  0  0  0  0  0  0  0
   31.9469   37.9353   63.1608 H   0  0  0  0  0  0  0  0  0  0  0  0
   31.3069   36.3183   63.5398 H   0  0  0  0  0  0  0  0  0  0  0  0
   31.3196   34.0665   59.8524 H   0  0  0  0  0  0  0  0  0  0  0  0
   30.4818   33.3818   56.0031 H   0  0  0  0  0  0  0  0  0  0  0  0
   30.5096   31.7270   56.6581 H   0  0  0  0  0  0  0  0  0  0  0  0
   29.7923   33.0489   57.6100 H   0  0  0  0  0  0  0  0  0  0  0  0
   34.4489   33.3532   56.1950 H   0  0  0  0  0  0  0  0  0  0  0  0
   34.4625   33.9328   54.5121 H   0  0  0  0  0  0  0  0  0  0  0  0
   35.0889   34.9702   55.8157 H   0  0  0  0  0  0  0  0  0  0  0  0
   32.7300   36.7002   54.7259 H   0  0  0  0  0  0  0  0  0  0  0  0
   31.8888   38.0650   55.4990 H   0  0  0  0  0  0  0  0  0  0  0  0
   33.4382   38.3322   54.6644 H   0  0  0  0  0  0  0  0  0  0  0  0
  1  2  1  0  0  0  0
  1 20  1  0  0  0  0
  1 21  1  0  0  0  0
  1 22  1  0  0  0  0
  2  3  1  0  0  0  0
  3  4  2  0  0  0  0
  3  5  1  0  0  0  0
  5 16  2  0  0  0  0
  5  6  1  0  0  0  0
  6  7  2  0  0  0  0
  6 23  1  0  0  0  0
  7  8  1  0  0  0  0
  7 10  1  0  0  0  0
  8  9  1  0  0  0  0
  9 24  1  0  0  0  0
  9 25  1  0  0  0  0
  9 26  1  0  0  0  0
 10 11  1  0  0  0  0
 10 13  2  0  0  0  0
 11 12  1  0  0  0  0
 12 27  1  0  0  0  0
 12 28  1  0  0  0  0
 12 29  1  0  0  0  0
 13 14  1  0  0  0  0
 13 16  1  0  0  0  0
 14 15  1  0  0  0  0
 15 30  1  0  0  0  0
 15 31  1  0  0  0  0
 15 32  1  0  0  0  0
 16 17  1  0  0  0  0
 17 18  2  0  0  0  0
 17 19  2  0  0  0  0
M  END
$$$$
