ZINC000000045415      none
 OpenBabel11202420153D

 25 26  0  0  1  0  0  0  0  0999 V2000
   28.2164   34.5931   65.1843 C   0  0  0  0  0  0  0  0  0  0  0  0
   29.5062   35.3006   64.8578 C   0  0  0  0  0  0  0  0  0  0  0  0
   29.9214   35.3094   63.7184 O   0  0  0  0  0  0  0  0  0  0  0  0
   30.1983   35.9237   65.8322 N   0  0  0  0  0  0  0  0  0  0  0  0
   31.4522   36.6117   65.5147 C   0  0  1  0  0  0  0  0  0  0  0  0
   32.0551   37.2410   66.7723 C   0  0  0  0  0  0  0  0  0  0  0  0
   32.3880   35.9524   67.9887 Cl  0  0  0  0  0  0  0  0  0  0  0  0
   33.5942   38.0779   66.3467 Cl  0  0  0  0  0  0  0  0  0  0  0  0
   30.8934   38.4341   67.4635 Cl  0  0  0  0  0  0  0  0  0  0  0  0
   32.3880   35.7025   64.9056 O   0  0  0  0  0  0  0  0  0  0  0  0
   32.1757   35.8077   63.5610 C   0  0  0  0  0  0  0  0  0  0  0  0
   32.5352   34.9832   62.5073 C   0  0  0  0  0  0  0  0  0  0  0  0
   32.1909   35.3246   61.2128 C   0  0  0  0  0  0  0  0  0  0  0  0
   31.4881   36.4905   60.9655 C   0  0  0  0  0  0  0  0  0  0  0  0
   31.0588   36.9148   59.3378 Cl  0  0  0  0  0  0  0  0  0  0  0  0
   31.1274   37.3188   62.0130 C   0  0  0  0  0  0  0  0  0  0  0  0
   31.4688   36.9816   63.3126 C   0  0  0  0  0  0  0  0  0  0  0  0
   31.2381   37.6118   64.5012 O   0  0  0  0  0  0  0  0  0  0  0  0
   27.5044   35.3077   65.5974 H   0  0  0  0  0  0  0  0  0  0  0  0
   27.8038   34.1524   64.2768 H   0  0  0  0  0  0  0  0  0  0  0  0
   28.4079   33.8073   65.9151 H   0  0  0  0  0  0  0  0  0  0  0  0
   29.8661   35.9167   66.7435 H   0  0  0  0  0  0  0  0  0  0  0  0
   33.0844   34.0729   62.6974 H   0  0  0  0  0  0  0  0  0  0  0  0
   32.4715   34.6803   60.3927 H   0  0  0  0  0  0  0  0  0  0  0  0
   30.5790   38.2285   61.8176 H   0  0  0  0  0  0  0  0  0  0  0  0
  1  2  1  0  0  0  0
  1 19  1  0  0  0  0
  1 20  1  0  0  0  0
  1 21  1  0  0  0  0
  2  3  2  0  0  0  0
  2  4  1  0  0  0  0
  4 22  1  0  0  0  0
  5  4  1  1  0  0  0
  5 18  1  0  0  0  0
  5  6  1  0  0  0  0
  5 10  1  0  0  0  0
  6  7  1  0  0  0  0
  6  8  1  0  0  0  0
  6  9  1  0  0  0  0
 10 11  1  0  0  0  0
 11 17  2  0  0  0  0
 11 12  1  0  0  0  0
 12 13  2  0  0  0  0
 12 23  1  0  0  0  0
 13 14  1  0  0  0  0
 13 24  1  0  0  0  0
 14 15  1  0  0  0  0
 14 16  2  0  0  0  0
 16 17  1  0  0  0  0
 16 25  1  0  0  0  0
 17 18  1  0  0  0  0
M  END
$$$$
