ZINC000000056937      none
 OpenBabel11202420153D

 18 18  0  0  0  0  0  0  0  0999 V2000
   32.2861   36.7302   62.0448 C   0  0  0  0  0  0  0  0  0  0  0  0
   32.0818   37.7981   61.0013 C   0  0  0  0  0  0  0  0  0  0  0  0
   31.5959   38.8651   61.3125 O   0  0  0  0  0  0  0  0  0  0  0  0
   32.4705   37.5469   59.6083 C   0  0  0  0  0  0  0  0  0  0  0  0
   32.4240   36.2481   59.0869 C   0  0  0  0  0  0  0  0  0  0  0  0
   32.7959   36.0192   57.7805 C   0  0  0  0  0  0  0  0  0  0  0  0
   32.7388   34.2637   57.0797 Br  0  0  0  0  0  0  0  0  0  0  0  0
   33.2115   37.0700   56.9762 C   0  0  0  0  0  0  0  0  0  0  0  0
   33.2570   38.3571   57.4749 C   0  0  0  0  0  0  0  0  0  0  0  0
   33.8247   39.7798   56.3659 Br  0  0  0  0  0  0  0  0  0  0  0  0
   32.8865   38.6082   58.7885 C   0  0  0  0  0  0  0  0  0  0  0  0
   32.9311   39.8717   59.2796 O   0  0  0  0  0  0  0  0  0  0  0  0
   32.7302   35.8494   61.5813 H   0  0  0  0  0  0  0  0  0  0  0  0
   32.9508   37.1053   62.8230 H   0  0  0  0  0  0  0  0  0  0  0  0
   31.3253   36.4637   62.4851 H   0  0  0  0  0  0  0  0  0  0  0  0
   32.1011   35.4266   59.7092 H   0  0  0  0  0  0  0  0  0  0  0  0
   33.5010   36.8807   55.9532 H   0  0  0  0  0  0  0  0  0  0  0  0
   32.6583   39.9441   60.2045 H   0  0  0  0  0  0  0  0  0  0  0  0
  1  2  1  0  0  0  0
  1 13  1  0  0  0  0
  1 14  1  0  0  0  0
  1 15  1  0  0  0  0
  2  3  2  0  0  0  0
  2  4  1  0  0  0  0
  4 11  2  0  0  0  0
  4  5  1  0  0  0  0
  5  6  2  0  0  0  0
  5 16  1  0  0  0  0
  6  7  1  0  0  0  0
  6  8  1  0  0  0  0
  8  9  2  0  0  0  0
  8 17  1  0  0  0  0
  9 10  1  0  0  0  0
  9 11  1  0  0  0  0
 11 12  1  0  0  0  0
 12 18  1  0  0  0  0
M  END
$$$$
