ZINC000000049203      none
 OpenBabel11202420153D

 46 48  0  0  0  0  0  0  0  0999 V2000
   33.1941   33.5927   52.9959 C   0  0  0  0  0  0  0  0  0  0  0  0
   32.8061   33.3157   54.4498 C   0  0  0  0  0  0  0  0  0  0  0  0
   32.9337   34.5362   55.2259 O   0  0  0  0  0  0  0  0  0  0  0  0
   32.6271   34.4629   56.5369 C   0  0  0  0  0  0  0  0  0  0  0  0
   32.2628   33.4072   57.0181 O   0  0  0  0  0  0  0  0  0  0  0  0
   32.7327   35.6569   57.3829 C   0  0  0  0  0  0  0  0  0  0  0  0
   32.4585   35.7396   58.7175 C   0  0  0  0  0  0  0  0  0  0  0  0
   31.9835   34.5967   59.5773 C   0  0  0  0  0  0  0  0  0  0  0  0
   32.6719   37.0039   59.1513 N   0  0  0  0  0  0  0  0  0  0  0  0
   32.4786   37.4580   60.5307 C   0  0  0  0  0  0  0  0  0  0  0  0
   31.0413   37.9511   60.7086 C   0  0  0  0  0  0  0  0  0  0  0  0
   30.8528   38.3941   62.0541 O   0  0  0  0  0  0  0  0  0  0  0  0
   31.0490   37.4779   63.0386 C   0  0  0  0  0  0  0  0  0  0  0  0
   31.5032   37.8839   64.2849 C   0  0  0  0  0  0  0  0  0  0  0  0
   31.6969   36.9512   65.2856 C   0  0  0  0  0  0  0  0  0  0  0  0
   31.4485   35.6131   65.0424 C   0  0  0  0  0  0  0  0  0  0  0  0
   31.0011   35.2053   63.7993 C   0  0  0  0  0  0  0  0  0  0  0  0
   30.8009   36.1345   62.7970 C   0  0  0  0  0  0  0  0  0  0  0  0
   33.0976   37.8057   58.1100 C   0  0  0  0  0  0  0  0  0  0  0  0
   33.4443   39.1504   58.0260 C   0  0  0  0  0  0  0  0  0  0  0  0
   33.8415   39.6852   56.8207 C   0  0  0  0  0  0  0  0  0  0  0  0
   33.8994   38.8916   55.6787 C   0  0  0  0  0  0  0  0  0  0  0  0
   34.2926   39.4340   54.4954 O   0  0  0  0  0  0  0  0  0  0  0  0
   33.5580   37.5540   55.7440 C   0  0  0  0  0  0  0  0  0  0  0  0
   33.1557   37.0047   56.9589 C   0  0  0  0  0  0  0  0  0  0  0  0
   32.5348   34.3564   52.5833 H   0  0  0  0  0  0  0  0  0  0  0  0
   34.2256   33.9427   52.9555 H   0  0  0  0  0  0  0  0  0  0  0  0
   33.0983   32.6764   52.4135 H   0  0  0  0  0  0  0  0  0  0  0  0
   33.4653   32.5520   54.8626 H   0  0  0  0  0  0  0  0  0  0  0  0
   31.7747   32.9656   54.4902 H   0  0  0  0  0  0  0  0  0  0  0  0
   32.8439   34.0782   60.0003 H   0  0  0  0  0  0  0  0  0  0  0  0
   31.3598   34.9832   60.3833 H   0  0  0  0  0  0  0  0  0  0  0  0
   31.4031   33.9020   58.9700 H   0  0  0  0  0  0  0  0  0  0  0  0
   32.6664   36.6309   61.2153 H   0  0  0  0  0  0  0  0  0  0  0  0
   33.1711   38.2719   60.7456 H   0  0  0  0  0  0  0  0  0  0  0  0
   30.8534   38.7783   60.0241 H   0  0  0  0  0  0  0  0  0  0  0  0
   30.3488   37.1372   60.4937 H   0  0  0  0  0  0  0  0  0  0  0  0
   31.7015   38.9286   64.4740 H   0  0  0  0  0  0  0  0  0  0  0  0
   32.0463   37.2673   66.2573 H   0  0  0  0  0  0  0  0  0  0  0  0
   31.6044   34.8850   65.8247 H   0  0  0  0  0  0  0  0  0  0  0  0
   30.8085   34.1593   63.6117 H   0  0  0  0  0  0  0  0  0  0  0  0
   30.4518   35.8154   61.8260 H   0  0  0  0  0  0  0  0  0  0  0  0
   33.4024   39.7748   58.9062 H   0  0  0  0  0  0  0  0  0  0  0  0
   34.1099   40.7296   56.7609 H   0  0  0  0  0  0  0  0  0  0  0  0
   34.3017   38.8071   53.7593 H   0  0  0  0  0  0  0  0  0  0  0  0
   33.6032   36.9381   54.8581 H   0  0  0  0  0  0  0  0  0  0  0  0
  1  2  1  0  0  0  0
  1 26  1  0  0  0  0
  1 27  1  0  0  0  0
  1 28  1  0  0  0  0
  2  3  1  0  0  0  0
  2 29  1  0  0  0  0
  2 30  1  0  0  0  0
  3  4  1  0  0  0  0
  4  5  2  0  0  0  0
  4  6  1  0  0  0  0
  6 25  1  0  0  0  0
  6  7  2  0  0  0  0
  7  8  1  0  0  0  0
  7  9  1  0  0  0  0
  8 31  1  0  0  0  0
  8 32  1  0  0  0  0
  8 33  1  0  0  0  0
  9 10  1  0  0  0  0
  9 19  1  0  0  0  0
 10 11  1  0  0  0  0
 10 34  1  0  0  0  0
 10 35  1  0  0  0  0
 11 12  1  0  0  0  0
 11 36  1  0  0  0  0
 11 37  1  0  0  0  0
 12 13  1  0  0  0  0
 13 18  2  0  0  0  0
 13 14  1  0  0  0  0
 14 15  2  0  0  0  0
 14 38  1  0  0  0  0
 15 16  1  0  0  0  0
 15 39  1  0  0  0  0
 16 17  2  0  0  0  0
 16 40  1  0  0  0  0
 17 18  1  0  0  0  0
 17 41  1  0  0  0  0
 18 42  1  0  0  0  0
 19 25  2  0  0  0  0
 19 20  1  0  0  0  0
 20 21  2  0  0  0  0
 20 43  1  0  0  0  0
 21 22  1  0  0  0  0
 21 44  1  0  0  0  0
 22 23  1  0  0  0  0
 22 24  2  0  0  0  0
 23 45  1  0  0  0  0
 24 25  1  0  0  0  0
 24 46  1  0  0  0  0
M  END
$$$$
