ZINC000000041813      none
 OpenBabel11202420153D

 33 35  0  0  1  0  0  0  0  0999 V2000
   29.6842   33.5386   65.0611 C   0  0  0  0  0  0  0  0  0  0  0  0
   30.3495   34.8897   65.0083 C   0  0  0  0  0  0  0  0  0  0  0  0
   31.2071   35.1726   65.8110 O   0  0  0  0  0  0  0  0  0  0  0  0
   29.9892   35.7790   64.0695 O   0  0  0  0  0  0  0  0  0  0  0  0
   31.0235   36.2264   63.1539 C   0  0  1  0  0  0  0  0  0  0  0  0
   31.2218   35.1986   62.0698 C   0  0  0  0  0  0  0  0  0  0  0  0
   32.1436   34.1845   62.2502 C   0  0  0  0  0  0  0  0  0  0  0  0
   32.3225   33.2475   61.2443 C   0  0  0  0  0  0  0  0  0  0  0  0
   31.5556   33.3591   60.0944 C   0  0  0  0  0  0  0  0  0  0  0  0
   30.6534   34.4000   59.9851 C   0  0  0  0  0  0  0  0  0  0  0  0
   30.5136   35.2768   60.9603 N   0  0  0  0  0  0  0  0  0  0  0  0
   30.6169   37.5672   62.5277 C   0  0  0  0  0  0  0  0  0  0  0  0
   30.4506   38.5222   63.5812 O   0  0  0  0  0  0  0  0  0  0  0  0
   31.4277   38.5651   64.5279 C   0  0  0  0  0  0  0  0  0  0  0  0
   31.5236   39.6725   65.3575 C   0  0  0  0  0  0  0  0  0  0  0  0
   32.5061   39.7276   66.3278 C   0  0  0  0  0  0  0  0  0  0  0  0
   33.3958   38.6796   66.4744 C   0  0  0  0  0  0  0  0  0  0  0  0
   33.3066   37.5740   65.6501 C   0  0  0  0  0  0  0  0  0  0  0  0
   32.3235   37.5127   64.6736 C   0  0  0  0  0  0  0  0  0  0  0  0
   32.2498   36.4186   63.8674 O   0  0  0  0  0  0  0  0  0  0  0  0
   29.8542   33.0129   64.1215 H   0  0  0  0  0  0  0  0  0  0  0  0
   30.1042   32.9586   65.8829 H   0  0  0  0  0  0  0  0  0  0  0  0
   28.6131   33.6668   65.2170 H   0  0  0  0  0  0  0  0  0  0  0  0
   32.7204   34.1255   63.1614 H   0  0  0  0  0  0  0  0  0  0  0  0
   33.0387   32.4468   61.3557 H   0  0  0  0  0  0  0  0  0  0  0  0
   31.6650   32.6438   59.2926 H   0  0  0  0  0  0  0  0  0  0  0  0
   30.0556   34.4966   59.0908 H   0  0  0  0  0  0  0  0  0  0  0  0
   31.3964   37.9056   61.8450 H   0  0  0  0  0  0  0  0  0  0  0  0
   29.6784   37.4504   61.9860 H   0  0  0  0  0  0  0  0  0  0  0  0
   30.8300   40.4926   65.2449 H   0  0  0  0  0  0  0  0  0  0  0  0
   32.5794   40.5911   66.9725 H   0  0  0  0  0  0  0  0  0  0  0  0
   34.1618   38.7250   67.2343 H   0  0  0  0  0  0  0  0  0  0  0  0
   34.0034   36.7570   65.7660 H   0  0  0  0  0  0  0  0  0  0  0  0
  1  2  1  0  0  0  0
  1 21  1  0  0  0  0
  1 22  1  0  0  0  0
  1 23  1  0  0  0  0
  2  3  2  0  0  0  0
  2  4  1  0  0  0  0
  5  4  1  1  0  0  0
  5 20  1  0  0  0  0
  5  6  1  0  0  0  0
  5 12  1  0  0  0  0
  6 11  2  0  0  0  0
  6  7  1  0  0  0  0
  7  8  2  0  0  0  0
  7 24  1  0  0  0  0
  8  9  1  0  0  0  0
  8 25  1  0  0  0  0
  9 10  2  0  0  0  0
  9 26  1  0  0  0  0
 10 11  1  0  0  0  0
 10 27  1  0  0  0  0
 12 13  1  0  0  0  0
 12 28  1  0  0  0  0
 12 29  1  0  0  0  0
 13 14  1  0  0  0  0
 14 19  2  0  0  0  0
 14 15  1  0  0  0  0
 15 16  2  0  0  0  0
 15 30  1  0  0  0  0
 16 17  1  0  0  0  0
 16 31  1  0  0  0  0
 17 18  2  0  0  0  0
 17 32  1  0  0  0  0
 18 19  1  0  0  0  0
 18 33  1  0  0  0  0
 19 20  1  0  0  0  0
M  END
$$$$
