ZINC000000006787      none
 OpenBabel11202420153D

 29 30  0  0  0  0  0  0  0  0999 V2000
   30.8427   38.1933   65.8435 O   0  0  0  0  0  0  0  0  0  0  0  0
   31.2303   38.0057   64.5550 C   0  0  0  0  0  0  0  0  0  0  0  0
   30.8594   38.9226   63.5799 C   0  0  0  0  0  0  0  0  0  0  0  0
   31.2505   38.7368   62.2718 C   0  0  0  0  0  0  0  0  0  0  0  0
   32.0218   37.6233   61.9268 C   0  0  0  0  0  0  0  0  0  0  0  0
   32.4422   37.4198   60.5293 C   0  0  0  0  0  0  0  0  0  0  0  0
   32.4491   38.4540   59.6729 C   0  0  0  0  0  0  0  0  0  0  0  0
   32.8696   38.2504   58.2750 C   0  0  0  0  0  0  0  0  0  0  0  0
   32.8591   36.9688   57.7197 C   0  0  0  0  0  0  0  0  0  0  0  0
   33.2496   36.7835   56.4042 C   0  0  0  0  0  0  0  0  0  0  0  0
   33.2346   35.5378   55.8611 O   0  0  0  0  0  0  0  0  0  0  0  0
   33.6617   37.8668   55.6413 C   0  0  0  0  0  0  0  0  0  0  0  0
   33.6794   39.1412   56.1902 C   0  0  0  0  0  0  0  0  0  0  0  0
   34.0836   40.1984   55.4378 O   0  0  0  0  0  0  0  0  0  0  0  0
   33.2853   39.3377   57.5030 C   0  0  0  0  0  0  0  0  0  0  0  0
   32.3882   36.7004   62.9106 C   0  0  0  0  0  0  0  0  0  0  0  0
   31.9967   36.8977   64.2170 C   0  0  0  0  0  0  0  0  0  0  0  0
   31.1477   37.5050   66.4501 H   0  0  0  0  0  0  0  0  0  0  0  0
   30.2630   39.7825   63.8473 H   0  0  0  0  0  0  0  0  0  0  0  0
   30.9618   39.4506   61.5144 H   0  0  0  0  0  0  0  0  0  0  0  0
   32.7447   36.4388   60.1938 H   0  0  0  0  0  0  0  0  0  0  0  0
   32.1465   39.4350   60.0084 H   0  0  0  0  0  0  0  0  0  0  0  0
   32.5432   36.1242   58.3143 H   0  0  0  0  0  0  0  0  0  0  0  0
   33.5233   35.5072   54.9388 H   0  0  0  0  0  0  0  0  0  0  0  0
   33.9695   37.7178   54.6169 H   0  0  0  0  0  0  0  0  0  0  0  0
   34.3390   39.9640   54.5351 H   0  0  0  0  0  0  0  0  0  0  0  0
   33.2996   40.3298   57.9293 H   0  0  0  0  0  0  0  0  0  0  0  0
   32.9803   35.8362   62.6480 H   0  0  0  0  0  0  0  0  0  0  0  0
   32.2828   36.1872   64.9786 H   0  0  0  0  0  0  0  0  0  0  0  0
  1  2  1  0  0  0  0
  1 18  1  0  0  0  0
  2 17  2  0  0  0  0
  2  3  1  0  0  0  0
  3  4  2  0  0  0  0
  3 19  1  0  0  0  0
  4  5  1  0  0  0  0
  4 20  1  0  0  0  0
  5  6  1  0  0  0  0
  5 16  2  0  0  0  0
  6  7  2  0  0  0  0
  6 21  1  0  0  0  0
  7  8  1  0  0  0  0
  7 22  1  0  0  0  0
  8 15  2  0  0  0  0
  8  9  1  0  0  0  0
  9 10  2  0  0  0  0
  9 23  1  0  0  0  0
 10 11  1  0  0  0  0
 10 12  1  0  0  0  0
 11 24  1  0  0  0  0
 12 13  2  0  0  0  0
 12 25  1  0  0  0  0
 13 14  1  0  0  0  0
 13 15  1  0  0  0  0
 14 26  1  0  0  0  0
 15 27  1  0  0  0  0
 16 17  1  0  0  0  0
 16 28  1  0  0  0  0
 17 29  1  0  0  0  0
M  END
$$$$
