ZINC000000020315      none
 OpenBabel11202420153D

 32 32  0  0  0  0  0  0  0  0999 V2000
   32.5151   36.7946   62.3237 C   0  0  0  0  0  0  0  0  0  0  0  0
   31.0639   37.0854   62.7115 C   0  0  0  0  0  0  0  0  0  0  0  0
   30.5524   36.3500   63.9519 C   0  0  0  0  0  0  0  0  0  0  0  0
   30.5350   38.4988   62.4599 C   0  0  0  0  0  0  0  0  0  0  0  0
   29.5497   39.0599   63.4525 C   0  0  0  0  0  0  0  0  0  0  0  0
   28.4690   39.4601   63.0743 O   0  0  0  0  0  0  0  0  0  0  0  0
   29.8672   39.1120   64.7612 N   0  0  0  0  0  0  0  0  0  0  0  0
   28.9070   39.6519   65.7271 C   0  0  0  0  0  0  0  0  0  0  0  0
   29.6506   40.2796   66.8776 C   0  0  0  0  0  0  0  0  0  0  0  0
   29.4684   39.8171   68.1304 N   0  0  0  0  0  0  0  0  0  0  0  0
   30.4132   41.2009   66.6763 O   0  0  0  0  0  0  0  0  0  0  0  0
   30.0669   37.3394   61.5781 C   0  0  0  0  0  0  0  0  0  0  0  0
   28.6342   36.8385   61.7716 C   0  0  0  0  0  0  0  0  0  0  0  0
   30.5979   37.2832   60.1444 C   0  0  0  0  0  0  0  0  0  0  0  0
   33.1071   36.6351   63.2249 H   0  0  0  0  0  0  0  0  0  0  0  0
   32.5528   35.9006   61.7012 H   0  0  0  0  0  0  0  0  0  0  0  0
   32.9194   37.6411   61.7685 H   0  0  0  0  0  0  0  0  0  0  0  0
   29.4728   36.2196   63.8775 H   0  0  0  0  0  0  0  0  0  0  0  0
   31.0325   35.3738   64.0193 H   0  0  0  0  0  0  0  0  0  0  0  0
   30.7876   36.9328   64.8425 H   0  0  0  0  0  0  0  0  0  0  0  0
   31.2210   39.2217   62.0184 H   0  0  0  0  0  0  0  0  0  0  0  0
   30.7315   38.7920   65.0639 H   0  0  0  0  0  0  0  0  0  0  0  0
   28.2871   40.4052   65.2408 H   0  0  0  0  0  0  0  0  0  0  0  0
   28.2742   38.8463   66.0996 H   0  0  0  0  0  0  0  0  0  0  0  0
   28.8585   39.0802   68.2915 H   0  0  0  0  0  0  0  0  0  0  0  0
   29.9471   40.2211   68.8710 H   0  0  0  0  0  0  0  0  0  0  0  0
   28.0405   37.0870   60.8920 H   0  0  0  0  0  0  0  0  0  0  0  0
   28.6430   35.7574   61.9104 H   0  0  0  0  0  0  0  0  0  0  0  0
   28.1986   37.3141   62.6503 H   0  0  0  0  0  0  0  0  0  0  0  0
   31.3776   38.0340   60.0159 H   0  0  0  0  0  0  0  0  0  0  0  0
   31.0107   36.2935   59.9484 H   0  0  0  0  0  0  0  0  0  0  0  0
   29.7838   37.4818   59.4473 H   0  0  0  0  0  0  0  0  0  0  0  0
  1  2  1  0  0  0  0
  1 15  1  0  0  0  0
  1 16  1  0  0  0  0
  1 17  1  0  0  0  0
  2 12  1  0  0  0  0
  2  3  1  0  0  0  0
  2  4  1  0  0  0  0
  3 18  1  0  0  0  0
  3 19  1  0  0  0  0
  3 20  1  0  0  0  0
  4  5  1  0  0  0  0
  4 12  1  0  0  0  0
  4 21  1  0  0  0  0
  5  6  2  0  0  0  0
  5  7  1  0  0  0  0
  7  8  1  0  0  0  0
  7 22  1  0  0  0  0
  8  9  1  0  0  0  0
  8 23  1  0  0  0  0
  8 24  1  0  0  0  0
  9 10  1  0  0  0  0
  9 11  2  0  0  0  0
 10 25  1  0  0  0  0
 10 26  1  0  0  0  0
 12 13  1  0  0  0  0
 12 14  1  0  0  0  0
 13 27  1  0  0  0  0
 13 28  1  0  0  0  0
 13 29  1  0  0  0  0
 14 30  1  0  0  0  0
 14 31  1  0  0  0  0
 14 32  1  0  0  0  0
M  END
$$$$
