ZINC000000043457      none
 OpenBabel11202420153D

 24 25  0  0  0  0  0  0  0  0999 V2000
   32.0266   35.6507   59.3323 C   0  0  0  0  0  0  0  0  0  0  0  0
   32.5694   35.8377   57.6157 S   0  0  0  0  0  0  0  0  0  0  0  0
   32.9658   37.5545   57.6055 C   0  0  0  0  0  0  0  0  0  0  0  0
   32.8582   38.3808   58.6253 N   0  0  0  0  0  0  0  0  0  0  0  0
   33.2413   39.6071   58.2534 C   0  0  0  0  0  0  0  0  0  0  0  0
   33.2525   40.7355   59.0735 N   0  0  0  0  0  0  0  0  0  0  0  0
   33.6037   39.5782   56.9933 N   0  0  0  0  0  0  0  0  0  0  0  0
   33.4383   38.2565   56.5491 N   0  0  0  0  0  0  0  0  0  0  0  0
   33.7040   37.7633   55.2654 C   0  0  0  0  0  0  0  0  0  0  0  0
   34.7052   38.3374   54.4930 C   0  0  0  0  0  0  0  0  0  0  0  0
   34.9651   37.8486   53.2277 C   0  0  0  0  0  0  0  0  0  0  0  0
   34.2296   36.7895   52.7294 C   0  0  0  0  0  0  0  0  0  0  0  0
   33.2320   36.2150   53.4964 C   0  0  0  0  0  0  0  0  0  0  0  0
   32.9671   36.6991   54.7625 C   0  0  0  0  0  0  0  0  0  0  0  0
   31.1732   36.3035   59.5166 H   0  0  0  0  0  0  0  0  0  0  0  0
   31.7371   34.6152   59.5111 H   0  0  0  0  0  0  0  0  0  0  0  0
   32.8422   35.9209   60.0028 H   0  0  0  0  0  0  0  0  0  0  0  0
   33.5465   41.5894   58.7196 H   0  0  0  0  0  0  0  0  0  0  0  0
   32.9665   40.6661   59.9978 H   0  0  0  0  0  0  0  0  0  0  0  0
   35.2802   39.1650   54.8814 H   0  0  0  0  0  0  0  0  0  0  0  0
   35.7439   38.2944   52.6267 H   0  0  0  0  0  0  0  0  0  0  0  0
   34.4318   36.4113   51.7383 H   0  0  0  0  0  0  0  0  0  0  0  0
   32.6593   35.3872   53.1047 H   0  0  0  0  0  0  0  0  0  0  0  0
   32.1882   36.2503   55.3608 H   0  0  0  0  0  0  0  0  0  0  0  0
  1  2  1  0  0  0  0
  1 15  1  0  0  0  0
  1 16  1  0  0  0  0
  1 17  1  0  0  0  0
  2  3  1  0  0  0  0
  3  8  1  0  0  0  0
  3  4  2  0  0  0  0
  4  5  1  0  0  0  0
  5  6  1  0  0  0  0
  5  7  2  0  0  0  0
  6 18  1  0  0  0  0
  6 19  1  0  0  0  0
  7  8  1  0  0  0  0
  8  9  1  0  0  0  0
  9 14  2  0  0  0  0
  9 10  1  0  0  0  0
 10 11  2  0  0  0  0
 10 20  1  0  0  0  0
 11 12  1  0  0  0  0
 11 21  1  0  0  0  0
 12 13  2  0  0  0  0
 12 22  1  0  0  0  0
 13 14  1  0  0  0  0
 13 23  1  0  0  0  0
 14 24  1  0  0  0  0
M  END
$$$$
