ZINC000000038385      none
 OpenBabel11202420153D

 36 37  0  0  0  0  0  0  0  0999 V2000
   26.7570   30.1547   66.4638 C   0  0  0  0  0  0  0  0  0  0  0  0
   27.8392   30.4513   65.5791 O   0  0  0  0  0  0  0  0  0  0  0  0
   28.2367   31.7469   65.5045 C   0  0  0  0  0  0  0  0  0  0  0  0
   27.6519   32.5988   64.5749 C   0  0  0  0  0  0  0  0  0  0  0  0
   28.0479   33.9155   64.4999 C   0  0  0  0  0  0  0  0  0  0  0  0
   29.0396   34.3953   65.3597 C   0  0  0  0  0  0  0  0  0  0  0  0
   29.4663   35.8062   65.2826 C   0  0  0  0  0  0  0  0  0  0  0  0
   28.9047   36.6489   65.9555 O   0  0  0  0  0  0  0  0  0  0  0  0
   30.4786   36.1605   64.4663 N   0  0  0  0  0  0  0  0  0  0  0  0
   31.1710   35.1527   63.6516 C   0  0  0  0  0  0  0  0  0  0  0  0
   31.1491   35.6109   62.1854 C   0  0  0  0  0  0  0  0  0  0  0  0
   31.7466   37.0166   62.0873 C   0  0  0  0  0  0  0  0  0  0  0  0
   31.7617   37.4627   60.6239 C   0  0  0  0  0  0  0  0  0  0  0  0
   30.8995   37.9911   62.9087 C   0  0  0  0  0  0  0  0  0  0  0  0
   30.9147   37.5608   64.3789 C   0  0  0  0  0  0  0  0  0  0  0  0
   29.6258   33.5364   66.2927 C   0  0  0  0  0  0  0  0  0  0  0  0
   29.2238   32.2201   66.3619 C   0  0  0  0  0  0  0  0  0  0  0  0
   30.0151   31.0562   67.6248 Br  0  0  0  0  0  0  0  0  0  0  0  0
   27.0314   30.4360   67.4805 H   0  0  0  0  0  0  0  0  0  0  0  0
   25.8735   30.7150   66.1578 H   0  0  0  0  0  0  0  0  0  0  0  0
   26.5406   29.0870   66.4281 H   0  0  0  0  0  0  0  0  0  0  0  0
   26.8855   32.2275   63.9106 H   0  0  0  0  0  0  0  0  0  0  0  0
   27.5928   34.5766   63.7772 H   0  0  0  0  0  0  0  0  0  0  0  0
   32.2020   35.0539   63.9912 H   0  0  0  0  0  0  0  0  0  0  0  0
   30.6601   34.1943   63.7440 H   0  0  0  0  0  0  0  0  0  0  0  0
   30.1218   35.6261   61.8216 H   0  0  0  0  0  0  0  0  0  0  0  0
   31.7394   34.9218   61.5814 H   0  0  0  0  0  0  0  0  0  0  0  0
   32.7656   37.0058   62.4742 H   0  0  0  0  0  0  0  0  0  0  0  0
   32.1881   38.4632   60.5535 H   0  0  0  0  0  0  0  0  0  0  0  0
   32.3649   36.7686   60.0387 H   0  0  0  0  0  0  0  0  0  0  0  0
   30.7427   37.4739   60.2369 H   0  0  0  0  0  0  0  0  0  0  0  0
   29.8745   37.9839   62.5381 H   0  0  0  0  0  0  0  0  0  0  0  0
   31.3114   38.9963   62.8197 H   0  0  0  0  0  0  0  0  0  0  0  0
   30.2348   38.1917   64.9514 H   0  0  0  0  0  0  0  0  0  0  0  0
   31.9244   37.6547   64.7789 H   0  0  0  0  0  0  0  0  0  0  0  0
   30.3927   33.9033   66.9586 H   0  0  0  0  0  0  0  0  0  0  0  0
  1  2  1  0  0  0  0
  1 19  1  0  0  0  0
  1 20  1  0  0  0  0
  1 21  1  0  0  0  0
  2  3  1  0  0  0  0
  3 17  2  0  0  0  0
  3  4  1  0  0  0  0
  4  5  2  0  0  0  0
  4 22  1  0  0  0  0
  5  6  1  0  0  0  0
  5 23  1  0  0  0  0
  6  7  1  0  0  0  0
  6 16  2  0  0  0  0
  7  8  2  0  0  0  0
  7  9  1  0  0  0  0
  9 15  1  0  0  0  0
  9 10  1  0  0  0  0
 10 11  1  0  0  0  0
 10 24  1  0  0  0  0
 10 25  1  0  0  0  0
 11 12  1  0  0  0  0
 11 26  1  0  0  0  0
 11 27  1  0  0  0  0
 12 13  1  0  0  0  0
 12 14  1  0  0  0  0
 12 28  1  0  0  0  0
 13 29  1  0  0  0  0
 13 30  1  0  0  0  0
 13 31  1  0  0  0  0
 14 15  1  0  0  0  0
 14 32  1  0  0  0  0
 14 33  1  0  0  0  0
 15 34  1  0  0  0  0
 15 35  1  0  0  0  0
 16 17  1  0  0  0  0
 16 36  1  0  0  0  0
 17 18  1  0  0  0  0
M  END
$$$$
