ZINC000000035930      none
 OpenBabel11202420153D

 33 34  0  0  0  0  0  0  0  0999 V2000
   32.5607   34.8827   58.4109 C   0  0  0  0  0  0  0  0  0  0  0  0
   32.5202   36.1709   59.0282 O   0  0  0  0  0  0  0  0  0  0  0  0
   32.9013   37.2320   58.2681 C   0  0  0  0  0  0  0  0  0  0  0  0
   33.3000   37.0383   56.9554 C   0  0  0  0  0  0  0  0  0  0  0  0
   33.6869   38.1181   56.1837 C   0  0  0  0  0  0  0  0  0  0  0  0
   33.6774   39.3934   56.7181 C   0  0  0  0  0  0  0  0  0  0  0  0
   33.2811   39.5951   58.0265 C   0  0  0  0  0  0  0  0  0  0  0  0
   32.8866   38.5170   58.8055 C   0  0  0  0  0  0  0  0  0  0  0  0
   32.4788   38.7197   60.1307 N   0  0  0  0  0  0  0  0  0  0  0  0
   31.2374   38.3632   60.5158 C   0  0  0  0  0  0  0  0  0  0  0  0
   30.4732   37.8670   59.7154 O   0  0  0  0  0  0  0  0  0  0  0  0
   30.7990   38.5812   61.9411 C   0  0  0  0  0  0  0  0  0  0  0  0
   30.4308   37.2579   62.5613 C   0  0  0  0  0  0  0  0  0  0  0  0
   29.1305   36.7956   62.4811 C   0  0  0  0  0  0  0  0  0  0  0  0
   28.7930   35.5796   63.0447 C   0  0  0  0  0  0  0  0  0  0  0  0
   29.7553   34.8301   63.6998 C   0  0  0  0  0  0  0  0  0  0  0  0
   29.4250   33.6442   64.2567 F   0  0  0  0  0  0  0  0  0  0  0  0
   31.0560   35.2968   63.7844 C   0  0  0  0  0  0  0  0  0  0  0  0
   31.3926   36.5102   63.2149 C   0  0  0  0  0  0  0  0  0  0  0  0
   33.5802   34.6641   58.0932 H   0  0  0  0  0  0  0  0  0  0  0  0
   31.9001   34.8744   57.5440 H   0  0  0  0  0  0  0  0  0  0  0  0
   32.2329   34.1273   59.1249 H   0  0  0  0  0  0  0  0  0  0  0  0
   33.3089   36.0436   56.5350 H   0  0  0  0  0  0  0  0  0  0  0  0
   33.9977   37.9652   55.1608 H   0  0  0  0  0  0  0  0  0  0  0  0
   33.9808   40.2339   56.1116 H   0  0  0  0  0  0  0  0  0  0  0  0
   33.2747   40.5922   58.4414 H   0  0  0  0  0  0  0  0  0  0  0  0
   33.0900   39.1166   60.7708 H   0  0  0  0  0  0  0  0  0  0  0  0
   31.6136   39.0335   62.5067 H   0  0  0  0  0  0  0  0  0  0  0  0
   29.9335   39.2436   61.9577 H   0  0  0  0  0  0  0  0  0  0  0  0
   28.3790   37.3828   61.9744 H   0  0  0  0  0  0  0  0  0  0  0  0
   27.7780   35.2167   62.9785 H   0  0  0  0  0  0  0  0  0  0  0  0
   31.8074   34.7131   64.2956 H   0  0  0  0  0  0  0  0  0  0  0  0
   32.4071   36.8745   63.2808 H   0  0  0  0  0  0  0  0  0  0  0  0
  1  2  1  0  0  0  0
  1 20  1  0  0  0  0
  1 21  1  0  0  0  0
  1 22  1  0  0  0  0
  2  3  1  0  0  0  0
  3  8  2  0  0  0  0
  3  4  1  0  0  0  0
  4  5  2  0  0  0  0
  4 23  1  0  0  0  0
  5  6  1  0  0  0  0
  5 24  1  0  0  0  0
  6  7  2  0  0  0  0
  6 25  1  0  0  0  0
  7  8  1  0  0  0  0
  7 26  1  0  0  0  0
  8  9  1  0  0  0  0
  9 10  1  0  0  0  0
  9 27  1  0  0  0  0
 10 11  2  0  0  0  0
 10 12  1  0  0  0  0
 12 13  1  0  0  0  0
 12 28  1  0  0  0  0
 12 29  1  0  0  0  0
 13 19  2  0  0  0  0
 13 14  1  0  0  0  0
 14 15  2  0  0  0  0
 14 30  1  0  0  0  0
 15 16  1  0  0  0  0
 15 31  1  0  0  0  0
 16 17  1  0  0  0  0
 16 18  2  0  0  0  0
 18 19  1  0  0  0  0
 18 32  1  0  0  0  0
 19 33  1  0  0  0  0
M  END
$$$$
