ZINC000000029517      none
 OpenBabel11202420163D

 38 39  0  0  0  0  0  0  0  0999 V2000
   29.4439   33.2144   65.2038 C   0  0  0  0  0  0  0  0  0  0  0  0
   29.0990   34.9788   65.4464 S   0  0  0  0  0  0  0  0  0  0  0  0
   29.3157   35.3475   66.8015 O   0  0  0  0  0  0  0  0  0  0  0  0
   27.9081   35.3520   64.7668 O   0  0  0  0  0  0  0  0  0  0  0  0
   30.3035   35.7533   64.6147 N   0  0  0  0  0  0  0  0  0  0  0  0
   30.4546   35.5373   63.1736 C   0  0  0  0  0  0  0  0  0  0  0  0
   30.3028   36.8713   62.4375 C   0  0  0  0  0  0  0  0  0  0  0  0
   30.5203   36.6491   60.9390 C   0  0  0  0  0  0  0  0  0  0  0  0
   31.8619   36.0957   60.7146 N   0  0  0  0  0  0  0  0  0  0  0  0
   32.1580   35.9988   59.2791 C   0  0  0  0  0  0  0  0  0  0  0  0
   32.5737   37.3508   58.7595 C   0  0  0  0  0  0  0  0  0  0  0  0
   32.3135   37.6967   57.4467 C   0  0  0  0  0  0  0  0  0  0  0  0
   32.6941   38.9373   56.9704 C   0  0  0  0  0  0  0  0  0  0  0  0
   33.3349   39.8321   57.8068 C   0  0  0  0  0  0  0  0  0  0  0  0
   33.5964   39.4857   59.1193 C   0  0  0  0  0  0  0  0  0  0  0  0
   33.2151   38.2454   59.5959 C   0  0  0  0  0  0  0  0  0  0  0  0
   32.0155   34.7921   61.3730 C   0  0  0  0  0  0  0  0  0  0  0  0
   31.8426   34.9588   62.8843 C   0  0  0  0  0  0  0  0  0  0  0  0
   30.4304   32.9789   65.6030 H   0  0  0  0  0  0  0  0  0  0  0  0
   28.6907   32.6223   65.7235 H   0  0  0  0  0  0  0  0  0  0  0  0
   29.4177   32.9821   64.1392 H   0  0  0  0  0  0  0  0  0  0  0  0
   30.9091   36.3500   65.0818 H   0  0  0  0  0  0  0  0  0  0  0  0
   29.6905   34.8412   62.8275 H   0  0  0  0  0  0  0  0  0  0  0  0
   31.0421   37.5796   62.8115 H   0  0  0  0  0  0  0  0  0  0  0  0
   29.3014   37.2680   62.6050 H   0  0  0  0  0  0  0  0  0  0  0  0
   30.4269   37.5996   60.4137 H   0  0  0  0  0  0  0  0  0  0  0  0
   29.7721   35.9513   60.5631 H   0  0  0  0  0  0  0  0  0  0  0  0
   31.2684   35.6626   58.7464 H   0  0  0  0  0  0  0  0  0  0  0  0
   32.9667   35.2849   59.1224 H   0  0  0  0  0  0  0  0  0  0  0  0
   31.8125   36.9979   56.7933 H   0  0  0  0  0  0  0  0  0  0  0  0
   32.4947   39.2060   55.9435 H   0  0  0  0  0  0  0  0  0  0  0  0
   33.6325   40.8012   57.4346 H   0  0  0  0  0  0  0  0  0  0  0  0
   34.0971   40.1846   59.7729 H   0  0  0  0  0  0  0  0  0  0  0  0
   33.4178   37.9754   60.6218 H   0  0  0  0  0  0  0  0  0  0  0  0
   31.2602   34.1031   60.9948 H   0  0  0  0  0  0  0  0  0  0  0  0
   33.0080   34.3937   61.1627 H   0  0  0  0  0  0  0  0  0  0  0  0
   32.6061   35.6370   63.2653 H   0  0  0  0  0  0  0  0  0  0  0  0
   31.9411   33.9886   63.3711 H   0  0  0  0  0  0  0  0  0  0  0  0
  1  2  1  0  0  0  0
  1 19  1  0  0  0  0
  1 20  1  0  0  0  0
  1 21  1  0  0  0  0
  2  3  2  0  0  0  0
  2  4  2  0  0  0  0
  2  5  1  0  0  0  0
  5  6  1  0  0  0  0
  5 22  1  0  0  0  0
  6 18  1  0  0  0  0
  6  7  1  0  0  0  0
  6 23  1  0  0  0  0
  7  8  1  0  0  0  0
  7 24  1  0  0  0  0
  7 25  1  0  0  0  0
  8  9  1  0  0  0  0
  8 26  1  0  0  0  0
  8 27  1  0  0  0  0
  9 10  1  0  0  0  0
  9 17  1  0  0  0  0
 10 11  1  0  0  0  0
 10 28  1  0  0  0  0
 10 29  1  0  0  0  0
 11 16  2  0  0  0  0
 11 12  1  0  0  0  0
 12 13  2  0  0  0  0
 12 30  1  0  0  0  0
 13 14  1  0  0  0  0
 13 31  1  0  0  0  0
 14 15  2  0  0  0  0
 14 32  1  0  0  0  0
 15 16  1  0  0  0  0
 15 33  1  0  0  0  0
 16 34  1  0  0  0  0
 17 18  1  0  0  0  0
 17 35  1  0  0  0  0
 17 36  1  0  0  0  0
 18 37  1  0  0  0  0
 18 38  1  0  0  0  0
M  END
$$$$
