ZINC000000047317      none
 OpenBabel11202420153D

 41 43  0  0  0  0  0  0  0  0999 V2000
   33.8606   37.2642   65.9629 C   0  0  0  0  0  0  0  0  0  0  0  0
   32.4372   37.0581   65.4409 C   0  0  0  0  0  0  0  0  0  0  0  0
   32.2071   37.9259   64.3292 O   0  0  0  0  0  0  0  0  0  0  0  0
   31.3324   37.4958   63.3808 C   0  0  0  0  0  0  0  0  0  0  0  0
   31.7549   37.3303   62.0765 C   0  0  0  0  0  0  0  0  0  0  0  0
   30.8516   36.8872   61.1031 C   0  0  0  0  0  0  0  0  0  0  0  0
   31.2942   36.7095   59.7137 C   0  0  0  0  0  0  0  0  0  0  0  0
   32.5338   36.9653   59.3845 N   0  0  0  0  0  0  0  0  0  0  0  0
   32.9392   36.8073   58.1063 C   0  0  0  0  0  0  0  0  0  0  0  0
   32.8855   35.3037   57.2004 S   0  0  0  0  0  0  0  0  0  0  0  0
   33.5699   36.0795   55.7789 C   0  0  0  0  0  0  0  0  0  0  0  0
   33.8069   37.3799   56.0126 C   0  0  0  0  0  0  0  0  0  0  0  0
   33.4549   37.8011   57.3043 C   0  0  0  0  0  0  0  0  0  0  0  0
   33.6215   39.1509   57.7524 C   0  0  0  0  0  0  0  0  0  0  0  0
   33.7537   40.2217   58.1078 N   0  0  0  0  0  0  0  0  0  0  0  0
   34.3993   38.3164   54.9669 C   0  0  0  0  0  0  0  0  0  0  0  0
   35.0487   37.4787   53.8642 C   0  0  0  0  0  0  0  0  0  0  0  0
   34.0467   36.4298   53.3726 C   0  0  0  0  0  0  0  0  0  0  0  0
   33.8548   35.3756   54.4661 C   0  0  0  0  0  0  0  0  0  0  0  0
   29.5236   36.6198   61.4565 C   0  0  0  0  0  0  0  0  0  0  0  0
   29.1127   36.7828   62.7611 C   0  0  0  0  0  0  0  0  0  0  0  0
   30.0096   37.2217   63.7259 C   0  0  0  0  0  0  0  0  0  0  0  0
   29.5971   37.3851   65.0098 O   0  0  0  0  0  0  0  0  0  0  0  0
   34.5743   37.0371   65.1710 H   0  0  0  0  0  0  0  0  0  0  0  0
   33.9854   38.3000   66.2785 H   0  0  0  0  0  0  0  0  0  0  0  0
   34.0360   36.6023   66.8109 H   0  0  0  0  0  0  0  0  0  0  0  0
   31.7235   37.2852   66.2329 H   0  0  0  0  0  0  0  0  0  0  0  0
   32.3125   36.0223   65.1253 H   0  0  0  0  0  0  0  0  0  0  0  0
   32.7793   37.5422   61.8082 H   0  0  0  0  0  0  0  0  0  0  0  0
   30.5948   36.3720   58.9631 H   0  0  0  0  0  0  0  0  0  0  0  0
   33.6087   38.9330   54.5394 H   0  0  0  0  0  0  0  0  0  0  0  0
   35.1496   38.9554   55.4323 H   0  0  0  0  0  0  0  0  0  0  0  0
   35.3342   38.1263   53.0354 H   0  0  0  0  0  0  0  0  0  0  0  0
   35.9338   36.9799   54.2593 H   0  0  0  0  0  0  0  0  0  0  0  0
   33.0922   36.9098   53.1569 H   0  0  0  0  0  0  0  0  0  0  0  0
   34.4299   35.9538   52.4701 H   0  0  0  0  0  0  0  0  0  0  0  0
   34.7617   34.7784   54.5610 H   0  0  0  0  0  0  0  0  0  0  0  0
   33.0152   34.7302   54.2080 H   0  0  0  0  0  0  0  0  0  0  0  0
   28.8227   36.2821   60.7075 H   0  0  0  0  0  0  0  0  0  0  0  0
   28.0889   36.5724   63.0337 H   0  0  0  0  0  0  0  0  0  0  0  0
   28.6651   37.1709   65.1537 H   0  0  0  0  0  0  0  0  0  0  0  0
  1  2  1  0  0  0  0
  1 24  1  0  0  0  0
  1 25  1  0  0  0  0
  1 26  1  0  0  0  0
  2  3  1  0  0  0  0
  2 27  1  0  0  0  0
  2 28  1  0  0  0  0
  3  4  1  0  0  0  0
  4 22  2  0  0  0  0
  4  5  1  0  0  0  0
  5  6  2  0  0  0  0
  5 29  1  0  0  0  0
  6  7  1  0  0  0  0
  6 20  1  0  0  0  0
  7  8  2  0  0  0  0
  7 30  1  0  0  0  0
  8  9  1  0  0  0  0
  9 13  2  0  0  0  0
  9 10  1  0  0  0  0
 10 11  1  0  0  0  0
 11 19  1  0  0  0  0
 11 12  2  0  0  0  0
 12 13  1  0  0  0  0
 12 16  1  0  0  0  0
 13 14  1  0  0  0  0
 14 15  3  0  0  0  0
 16 17  1  0  0  0  0
 16 31  1  0  0  0  0
 16 32  1  0  0  0  0
 17 18  1  0  0  0  0
 17 33  1  0  0  0  0
 17 34  1  0  0  0  0
 18 19  1  0  0  0  0
 18 35  1  0  0  0  0
 18 36  1  0  0  0  0
 19 37  1  0  0  0  0
 19 38  1  0  0  0  0
 20 21  2  0  0  0  0
 20 39  1  0  0  0  0
 21 22  1  0  0  0  0
 21 40  1  0  0  0  0
 22 23  1  0  0  0  0
 23 41  1  0  0  0  0
M  END
$$$$
