ZINC000000016846      none
 OpenBabel11202420153D

 43 45  0  0  0  0  0  0  0  0999 V2000
   31.9294   37.7336   61.3186 C   0  0  0  0  0  0  0  0  0  0  0  0
   31.9480   36.3993   60.8074 O   0  0  0  0  0  0  0  0  0  0  0  0
   32.4075   36.2307   59.5392 C   0  0  0  0  0  0  0  0  0  0  0  0
   32.8221   37.3152   58.8227 C   0  0  0  0  0  0  0  0  0  0  0  0
   33.2977   37.1431   57.5112 C   0  0  0  0  0  0  0  0  0  0  0  0
   33.7319   38.2401   56.7473 C   0  0  0  0  0  0  0  0  0  0  0  0
   34.1887   38.0505   55.4780 C   0  0  0  0  0  0  0  0  0  0  0  0
   34.6497   39.2374   54.6719 C   0  0  0  0  0  0  0  0  0  0  0  0
   34.5092   40.4265   55.4519 O   0  0  0  0  0  0  0  0  0  0  0  0
   34.2369   36.7811   54.9132 C   0  0  0  0  0  0  0  0  0  0  0  0
   34.7480   36.6098   53.5060 C   0  0  0  0  0  0  0  0  0  0  0  0
   33.6592   36.7192   52.5872 O   0  0  0  0  0  0  0  0  0  0  0  0
   33.8196   35.6731   55.6299 C   0  0  0  0  0  0  0  0  0  0  0  0
   33.8736   34.3243   55.0207 C   0  0  0  0  0  0  0  0  0  0  0  0
   34.6465   33.3079   55.5923 C   0  0  0  0  0  0  0  0  0  0  0  0
   34.6636   32.0645   54.9952 C   0  0  0  0  0  0  0  0  0  0  0  0
   33.9692   31.8303   53.8980 N   0  0  0  0  0  0  0  0  0  0  0  0
   33.2321   32.7621   53.3239 C   0  0  0  0  0  0  0  0  0  0  0  0
   33.1575   34.0330   53.8546 C   0  0  0  0  0  0  0  0  0  0  0  0
   33.3353   35.8431   56.9493 C   0  0  0  0  0  0  0  0  0  0  0  0
   32.9067   34.7472   57.7113 C   0  0  0  0  0  0  0  0  0  0  0  0
   32.4495   34.9439   58.9829 C   0  0  0  0  0  0  0  0  0  0  0  0
   32.0297   33.8805   59.7179 O   0  0  0  0  0  0  0  0  0  0  0  0
   33.0105   33.2171   60.5180 C   0  0  0  0  0  0  0  0  0  0  0  0
   32.9419   38.1371   61.3180 H   0  0  0  0  0  0  0  0  0  0  0  0
   31.2905   38.3545   60.6905 H   0  0  0  0  0  0  0  0  0  0  0  0
   31.5415   37.7271   62.3373 H   0  0  0  0  0  0  0  0  0  0  0  0
   32.7853   38.3015   59.2613 H   0  0  0  0  0  0  0  0  0  0  0  0
   33.7029   39.2348   57.1670 H   0  0  0  0  0  0  0  0  0  0  0  0
   35.6960   39.1053   54.3963 H   0  0  0  0  0  0  0  0  0  0  0  0
   34.0440   39.3212   53.7696 H   0  0  0  0  0  0  0  0  0  0  0  0
   33.6018   40.6075   55.7331 H   0  0  0  0  0  0  0  0  0  0  0  0
   35.4847   37.3836   53.2904 H   0  0  0  0  0  0  0  0  0  0  0  0
   35.2116   35.6285   53.4048 H   0  0  0  0  0  0  0  0  0  0  0  0
   33.9153   36.6189   51.6601 H   0  0  0  0  0  0  0  0  0  0  0  0
   35.2177   33.4925   56.4902 H   0  0  0  0  0  0  0  0  0  0  0  0
   35.2536   31.2722   55.4316 H   0  0  0  0  0  0  0  0  0  0  0  0
   32.6794   32.5263   52.4265 H   0  0  0  0  0  0  0  0  0  0  0  0
   32.5523   34.7909   53.3793 H   0  0  0  0  0  0  0  0  0  0  0  0
   32.9343   33.7519   57.2929 H   0  0  0  0  0  0  0  0  0  0  0  0
   33.4308   33.9216   61.2356 H   0  0  0  0  0  0  0  0  0  0  0  0
   32.5443   32.3891   61.0519 H   0  0  0  0  0  0  0  0  0  0  0  0
   33.8045   32.8348   59.8765 H   0  0  0  0  0  0  0  0  0  0  0  0
  1  2  1  0  0  0  0
  1 25  1  0  0  0  0
  1 26  1  0  0  0  0
  1 27  1  0  0  0  0
  2  3  1  0  0  0  0
  3 22  2  0  0  0  0
  3  4  1  0  0  0  0
  4  5  2  0  0  0  0
  4 28  1  0  0  0  0
  5 20  1  0  0  0  0
  5  6  1  0  0  0  0
  6  7  2  0  0  0  0
  6 29  1  0  0  0  0
  7  8  1  0  0  0  0
  7 10  1  0  0  0  0
  8  9  1  0  0  0  0
  8 30  1  0  0  0  0
  8 31  1  0  0  0  0
  9 32  1  0  0  0  0
 10 11  1  0  0  0  0
 10 13  2  0  0  0  0
 11 12  1  0  0  0  0
 11 33  1  0  0  0  0
 11 34  1  0  0  0  0
 12 35  1  0  0  0  0
 13 14  1  0  0  0  0
 13 20  1  0  0  0  0
 14 19  2  0  0  0  0
 14 15  1  0  0  0  0
 15 16  2  0  0  0  0
 15 36  1  0  0  0  0
 16 17  1  0  0  0  0
 16 37  1  0  0  0  0
 17 18  2  0  0  0  0
 18 19  1  0  0  0  0
 18 38  1  0  0  0  0
 19 39  1  0  0  0  0
 20 21  2  0  0  0  0
 21 22  1  0  0  0  0
 21 40  1  0  0  0  0
 22 23  1  0  0  0  0
 23 24  1  0  0  0  0
 24 41  1  0  0  0  0
 24 42  1  0  0  0  0
 24 43  1  0  0  0  0
M  END
$$$$
