ZINC000000035202      none
 OpenBabel11202420153D

 33 35  0  0  0  0  0  0  0  0999 V2000
   30.5371   38.8999   68.0556 C   0  0  0  0  0  0  0  0  0  0  0  0
   31.4292   38.5852   66.9371 N   0  0  0  0  0  0  0  0  0  0  0  0
   32.6015   39.1889   66.6583 C   0  0  0  0  0  0  0  0  0  0  0  0
   33.0965   40.0932   67.3031 O   0  0  0  0  0  0  0  0  0  0  0  0
   33.1384   38.6364   65.5592 O   0  0  0  0  0  0  0  0  0  0  0  0
   32.3163   37.6589   65.1049 C   0  0  0  0  0  0  0  0  0  0  0  0
   32.3865   36.7893   64.0278 C   0  0  0  0  0  0  0  0  0  0  0  0
   31.3726   35.8765   63.8120 C   0  0  0  0  0  0  0  0  0  0  0  0
   31.4636   34.7724   62.4419 S   0  0  0  0  0  0  0  0  0  0  0  0
   30.6507   33.6549   62.7726 O   0  0  0  0  0  0  0  0  0  0  0  0
   32.8400   34.6605   62.1076 O   0  0  0  0  0  0  0  0  0  0  0  0
   30.7303   35.5210   61.1596 N   0  0  0  0  0  0  0  0  0  0  0  0
   31.4815   36.3244   60.2960 C   0  0  0  0  0  0  0  0  0  0  0  0
   32.0851   35.7676   59.1765 C   0  0  0  0  0  0  0  0  0  0  0  0
   32.8219   36.5649   58.3220 C   0  0  0  0  0  0  0  0  0  0  0  0
   32.9640   37.9153   58.5828 C   0  0  0  0  0  0  0  0  0  0  0  0
   32.3690   38.4736   59.6994 C   0  0  0  0  0  0  0  0  0  0  0  0
   31.6297   37.6820   60.5589 C   0  0  0  0  0  0  0  0  0  0  0  0
   31.0488   38.2272   61.6500 F   0  0  0  0  0  0  0  0  0  0  0  0
   30.2826   35.8290   64.6639 C   0  0  0  0  0  0  0  0  0  0  0  0
   30.2062   36.6883   65.7425 C   0  0  0  0  0  0  0  0  0  0  0  0
   31.2202   37.6065   65.9656 C   0  0  0  0  0  0  0  0  0  0  0  0
   30.8079   38.2918   68.9186 H   0  0  0  0  0  0  0  0  0  0  0  0
   30.6325   39.9554   68.3107 H   0  0  0  0  0  0  0  0  0  0  0  0
   29.5069   38.6869   67.7699 H   0  0  0  0  0  0  0  0  0  0  0  0
   33.2332   36.8252   63.3583 H   0  0  0  0  0  0  0  0  0  0  0  0
   29.7796   35.4022   61.0076 H   0  0  0  0  0  0  0  0  0  0  0  0
   31.9750   34.7130   58.9714 H   0  0  0  0  0  0  0  0  0  0  0  0
   33.2881   36.1324   57.4489 H   0  0  0  0  0  0  0  0  0  0  0  0
   33.5412   38.5355   57.9131 H   0  0  0  0  0  0  0  0  0  0  0  0
   32.4816   39.5289   59.9000 H   0  0  0  0  0  0  0  0  0  0  0  0
   29.4914   35.1157   64.4864 H   0  0  0  0  0  0  0  0  0  0  0  0
   29.3569   36.6471   66.4083 H   0  0  0  0  0  0  0  0  0  0  0  0
  1  2  1  0  0  0  0
  1 23  1  0  0  0  0
  1 24  1  0  0  0  0
  1 25  1  0  0  0  0
  2 22  1  0  0  0  0
  2  3  1  0  0  0  0
  3  4  2  0  0  0  0
  3  5  1  0  0  0  0
  5  6  1  0  0  0  0
  6 22  2  0  0  0  0
  6  7  1  0  0  0  0
  7  8  2  0  0  0  0
  7 26  1  0  0  0  0
  8  9  1  0  0  0  0
  8 20  1  0  0  0  0
  9 10  2  0  0  0  0
  9 11  2  0  0  0  0
  9 12  1  0  0  0  0
 12 13  1  0  0  0  0
 12 27  1  0  0  0  0
 13 18  2  0  0  0  0
 13 14  1  0  0  0  0
 14 15  2  0  0  0  0
 14 28  1  0  0  0  0
 15 16  1  0  0  0  0
 15 29  1  0  0  0  0
 16 17  2  0  0  0  0
 16 30  1  0  0  0  0
 17 18  1  0  0  0  0
 17 31  1  0  0  0  0
 18 19  1  0  0  0  0
 20 21  2  0  0  0  0
 20 32  1  0  0  0  0
 21 22  1  0  0  0  0
 21 33  1  0  0  0  0
M  END
$$$$
