ZINC000000000316      none
 OpenBabel11202420153D

 27 28  0  0  1  0  0  0  0  0999 V2000
   30.2019   37.0875   64.9795 O   0  0  0  0  0  0  0  0  0  0  0  0
   30.6729   37.1764   63.8654 C   0  0  0  0  0  0  0  0  0  0  0  0
   31.2567   38.4907   63.4276 C   0  0  0  0  0  0  0  0  0  0  0  0
   31.4178   38.5026   62.0087 O   0  0  0  0  0  0  0  0  0  0  0  0
   32.0796   37.3352   61.5073 C   0  0  2  0  0  0  0  0  0  0  0  0
   33.0084   37.1749   62.0547 H   0  0  0  0  0  0  0  0  0  0  0  0
   32.3810   37.5151   60.0417 C   0  0  0  0  0  0  0  0  0  0  0  0
   32.6147   38.7794   59.5342 C   0  0  0  0  0  0  0  0  0  0  0  0
   32.8952   38.9440   58.1906 C   0  0  0  0  0  0  0  0  0  0  0  0
   32.9337   37.8450   57.3530 C   0  0  0  0  0  0  0  0  0  0  0  0
   33.2357   38.0246   55.8875 C   0  0  0  0  0  0  0  0  0  0  0  0
   33.4393   39.3819   55.6164 F   0  0  0  0  0  0  0  0  0  0  0  0
   34.3892   37.3049   55.5576 F   0  0  0  0  0  0  0  0  0  0  0  0
   32.1591   37.5539   55.1283 F   0  0  0  0  0  0  0  0  0  0  0  0
   32.6949   36.5811   57.8595 C   0  0  0  0  0  0  0  0  0  0  0  0
   32.4183   36.4161   59.2039 C   0  0  0  0  0  0  0  0  0  0  0  0
   31.1570   36.1293   61.6975 C   0  0  0  0  0  0  0  0  0  0  0  0
   30.6494   36.1018   63.0671 N   0  0  0  0  0  0  0  0  0  0  0  0
   30.5903   39.3004   63.7255 H   0  0  0  0  0  0  0  0  0  0  0  0
   32.2290   38.6308   63.9000 H   0  0  0  0  0  0  0  0  0  0  0  0
   32.5812   39.6384   60.1880 H   0  0  0  0  0  0  0  0  0  0  0  0
   33.0814   39.9314   57.7948 H   0  0  0  0  0  0  0  0  0  0  0  0
   32.7246   35.7225   57.2050 H   0  0  0  0  0  0  0  0  0  0  0  0
   32.2316   35.4287   59.5996 H   0  0  0  0  0  0  0  0  0  0  0  0
   31.7131   35.2132   61.4991 H   0  0  0  0  0  0  0  0  0  0  0  0
   30.3202   36.2008   61.0027 H   0  0  0  0  0  0  0  0  0  0  0  0
   30.2808   35.2733   63.4112 H   0  0  0  0  0  0  0  0  0  0  0  0
  1  2  2  0  0  0  0
  2 18  1  0  0  0  0
  2  3  1  0  0  0  0
  3  4  1  0  0  0  0
  3 19  1  0  0  0  0
  3 20  1  0  0  0  0
  4  5  1  0  0  0  0
  5  6  1  1  0  0  0
  5  7  1  0  0  0  0
  5 17  1  0  0  0  0
  7 16  2  0  0  0  0
  7  8  1  0  0  0  0
  8  9  2  0  0  0  0
  8 21  1  0  0  0  0
  9 10  1  0  0  0  0
  9 22  1  0  0  0  0
 10 11  1  0  0  0  0
 10 15  2  0  0  0  0
 11 12  1  0  0  0  0
 11 13  1  0  0  0  0
 11 14  1  0  0  0  0
 15 16  1  0  0  0  0
 15 23  1  0  0  0  0
 16 24  1  0  0  0  0
 17 18  1  0  0  0  0
 17 25  1  0  0  0  0
 17 26  1  0  0  0  0
 18 27  1  0  0  0  0
M  END
$$$$
