ZINC000000038923      none
 OpenBabel11202420153D

 33 34  0  0  0  0  0  0  0  0999 V2000
   30.9406   36.0841   68.8962 C   0  0  0  0  0  0  0  0  0  0  0  0
   31.3332   36.0090   67.4431 C   0  0  0  0  0  0  0  0  0  0  0  0
   32.2205   36.9315   66.9196 C   0  0  0  0  0  0  0  0  0  0  0  0
   32.5822   36.8653   65.5883 C   0  0  0  0  0  0  0  0  0  0  0  0
   32.0539   35.8711   64.7754 C   0  0  0  0  0  0  0  0  0  0  0  0
   32.4178   35.8016   63.4265 N   0  0  0  0  0  0  0  0  0  0  0  0
   32.1653   36.8405   62.6061 C   0  0  0  0  0  0  0  0  0  0  0  0
   31.3990   38.2453   63.2145 S   0  0  0  0  0  0  0  0  0  0  0  0
   32.5212   36.7758   61.3077 N   0  0  0  0  0  0  0  0  0  0  0  0
   32.2735   37.8169   60.4884 C   0  0  0  0  0  0  0  0  0  0  0  0
   31.7296   38.8141   60.9204 O   0  0  0  0  0  0  0  0  0  0  0  0
   32.6636   37.7460   59.0655 C   0  0  0  0  0  0  0  0  0  0  0  0
   32.7514   36.5089   58.4234 C   0  0  0  0  0  0  0  0  0  0  0  0
   33.1112   36.4496   57.0937 C   0  0  0  0  0  0  0  0  0  0  0  0
   33.3952   37.6131   56.3975 C   0  0  0  0  0  0  0  0  0  0  0  0
   33.8540   37.5297   54.7253 Cl  0  0  0  0  0  0  0  0  0  0  0  0
   33.3149   38.8427   57.0303 C   0  0  0  0  0  0  0  0  0  0  0  0
   32.9515   38.9153   58.3583 C   0  0  0  0  0  0  0  0  0  0  0  0
   31.1589   34.9493   65.3030 C   0  0  0  0  0  0  0  0  0  0  0  0
   30.8056   35.0175   66.6363 C   0  0  0  0  0  0  0  0  0  0  0  0
   30.0609   36.7189   69.0026 H   0  0  0  0  0  0  0  0  0  0  0  0
   30.7131   35.0833   69.2633 H   0  0  0  0  0  0  0  0  0  0  0  0
   31.7639   36.5045   69.4738 H   0  0  0  0  0  0  0  0  0  0  0  0
   32.6306   37.7046   67.5524 H   0  0  0  0  0  0  0  0  0  0  0  0
   33.2749   37.5863   65.1800 H   0  0  0  0  0  0  0  0  0  0  0  0
   32.8521   35.0057   63.0818 H   0  0  0  0  0  0  0  0  0  0  0  0
   32.9553   35.9798   60.9628 H   0  0  0  0  0  0  0  0  0  0  0  0
   32.5345   35.6009   58.9663 H   0  0  0  0  0  0  0  0  0  0  0  0
   33.1759   35.4938   56.5949 H   0  0  0  0  0  0  0  0  0  0  0  0
   33.5378   39.7463   56.4823 H   0  0  0  0  0  0  0  0  0  0  0  0
   32.8900   39.8746   58.8508 H   0  0  0  0  0  0  0  0  0  0  0  0
   30.7431   34.1775   64.6724 H   0  0  0  0  0  0  0  0  0  0  0  0
   30.1132   34.2983   67.0484 H   0  0  0  0  0  0  0  0  0  0  0  0
  1  2  1  0  0  0  0
  1 21  1  0  0  0  0
  1 22  1  0  0  0  0
  1 23  1  0  0  0  0
  2 20  2  0  0  0  0
  2  3  1  0  0  0  0
  3  4  2  0  0  0  0
  3 24  1  0  0  0  0
  4  5  1  0  0  0  0
  4 25  1  0  0  0  0
  5  6  1  0  0  0  0
  5 19  2  0  0  0  0
  6  7  1  0  0  0  0
  6 26  1  0  0  0  0
  7  8  2  0  0  0  0
  7  9  1  0  0  0  0
  9 10  1  0  0  0  0
  9 27  1  0  0  0  0
 10 11  2  0  0  0  0
 10 12  1  0  0  0  0
 12 18  2  0  0  0  0
 12 13  1  0  0  0  0
 13 14  2  0  0  0  0
 13 28  1  0  0  0  0
 14 15  1  0  0  0  0
 14 29  1  0  0  0  0
 15 16  1  0  0  0  0
 15 17  2  0  0  0  0
 17 18  1  0  0  0  0
 17 30  1  0  0  0  0
 18 31  1  0  0  0  0
 19 20  1  0  0  0  0
 19 32  1  0  0  0  0
 20 33  1  0  0  0  0
M  END
$$$$
