ZINC000000001022      none
 OpenBabel11202420153D

 32 33  0  0  0  0  0  0  0  0999 V2000
   32.1569   37.6316   63.3404 N   0  0  0  0  0  0  0  0  0  0  0  0
   30.9837   37.8657   62.1954 S   0  0  0  0  0  0  0  0  0  0  0  0
   30.7411   39.2651   62.1497 O   0  0  0  0  0  0  0  0  0  0  0  0
   29.9672   36.9089   62.4609 O   0  0  0  0  0  0  0  0  0  0  0  0
   31.6816   37.4308   60.6370 C   0  0  0  0  0  0  0  0  0  0  0  0
   32.3255   38.3904   59.8776 C   0  0  0  0  0  0  0  0  0  0  0  0
   32.8733   38.0529   58.6555 C   0  0  0  0  0  0  0  0  0  0  0  0
   32.7768   36.7479   58.1893 C   0  0  0  0  0  0  0  0  0  0  0  0
   33.3292   36.4033   56.9536 N   0  0  0  0  0  0  0  0  0  0  0  0
   33.6124   37.4440   55.9621 C   0  0  0  0  0  0  0  0  0  0  0  0
   33.4816   36.8664   54.5764 C   0  0  0  0  0  0  0  0  0  0  0  0
   34.2458   37.3727   53.5417 C   0  0  0  0  0  0  0  0  0  0  0  0
   34.1262   36.8425   52.2706 C   0  0  0  0  0  0  0  0  0  0  0  0
   33.2415   35.8071   52.0340 C   0  0  0  0  0  0  0  0  0  0  0  0
   32.4777   35.3006   53.0689 C   0  0  0  0  0  0  0  0  0  0  0  0
   32.5980   35.8301   54.3402 C   0  0  0  0  0  0  0  0  0  0  0  0
   32.1246   35.7876   58.9524 C   0  0  0  0  0  0  0  0  0  0  0  0
   31.5838   36.1307   60.1760 C   0  0  0  0  0  0  0  0  0  0  0  0
   33.0334   37.3090   63.0778 H   0  0  0  0  0  0  0  0  0  0  0  0
   31.9679   37.8169   64.2735 H   0  0  0  0  0  0  0  0  0  0  0  0
   32.4006   39.4047   60.2406 H   0  0  0  0  0  0  0  0  0  0  0  0
   33.3757   38.8030   58.0626 H   0  0  0  0  0  0  0  0  0  0  0  0
   33.5254   35.4750   56.7520 H   0  0  0  0  0  0  0  0  0  0  0  0
   34.6264   37.8169   56.1063 H   0  0  0  0  0  0  0  0  0  0  0  0
   32.9034   38.2632   56.0827 H   0  0  0  0  0  0  0  0  0  0  0  0
   34.9330   38.1854   53.7253 H   0  0  0  0  0  0  0  0  0  0  0  0
   34.7230   37.2383   51.4621 H   0  0  0  0  0  0  0  0  0  0  0  0
   33.1480   35.3930   51.0410 H   0  0  0  0  0  0  0  0  0  0  0  0
   31.7872   34.4908   52.8843 H   0  0  0  0  0  0  0  0  0  0  0  0
   32.0011   35.4344   55.1486 H   0  0  0  0  0  0  0  0  0  0  0  0
   32.0440   34.7731   58.5910 H   0  0  0  0  0  0  0  0  0  0  0  0
   31.0802   35.3836   60.7716 H   0  0  0  0  0  0  0  0  0  0  0  0
  1  2  1  0  0  0  0
  1 19  1  0  0  0  0
  1 20  1  0  0  0  0
  2  3  2  0  0  0  0
  2  4  2  0  0  0  0
  2  5  1  0  0  0  0
  5 18  2  0  0  0  0
  5  6  1  0  0  0  0
  6  7  2  0  0  0  0
  6 21  1  0  0  0  0
  7  8  1  0  0  0  0
  7 22  1  0  0  0  0
  8  9  1  0  0  0  0
  8 17  2  0  0  0  0
  9 10  1  0  0  0  0
  9 23  1  0  0  0  0
 10 11  1  0  0  0  0
 10 24  1  0  0  0  0
 10 25  1  0  0  0  0
 11 16  2  0  0  0  0
 11 12  1  0  0  0  0
 12 13  2  0  0  0  0
 12 26  1  0  0  0  0
 13 14  1  0  0  0  0
 13 27  1  0  0  0  0
 14 15  2  0  0  0  0
 14 28  1  0  0  0  0
 15 16  1  0  0  0  0
 15 29  1  0  0  0  0
 16 30  1  0  0  0  0
 17 18  1  0  0  0  0
 17 31  1  0  0  0  0
 18 32  1  0  0  0  0
M  END
$$$$
