ZINC000000008066      none
 OpenBabel11202420153D

 21 22  0  0  0  0  0  0  0  0999 V2000
   35.1903   34.1807   54.5431 O   0  0  0  0  0  0  0  0  0  0  0  0
   34.3549   34.8831   55.0718 C   0  0  0  0  0  0  0  0  0  0  0  0
   33.5905   35.8810   54.2561 C   0  0  0  0  0  0  0  0  0  0  0  0
   34.0188   37.5624   54.7148 S   0  0  0  0  0  0  0  0  0  0  0  0
   33.4805   37.8055   56.3691 C   0  0  0  0  0  0  0  0  0  0  0  0
   33.5068   39.1427   56.8111 C   0  0  0  0  0  0  0  0  0  0  0  0
   33.1170   39.4953   58.0778 C   0  0  0  0  0  0  0  0  0  0  0  0
   32.6833   38.5144   58.9521 C   0  0  0  0  0  0  0  0  0  0  0  0
   32.6527   37.2059   58.5324 C   0  0  0  0  0  0  0  0  0  0  0  0
   33.0494   36.8350   57.2436 C   0  0  0  0  0  0  0  0  0  0  0  0
   32.9565   35.3774   56.9600 C   0  0  0  0  0  0  0  0  0  0  0  0
   34.1192   34.7683   56.3643 N   0  0  0  0  0  0  0  0  0  0  0  0
   32.5228   35.7287   54.4144 H   0  0  0  0  0  0  0  0  0  0  0  0
   33.8189   35.7296   53.2012 H   0  0  0  0  0  0  0  0  0  0  0  0
   33.8442   39.9127   56.1329 H   0  0  0  0  0  0  0  0  0  0  0  0
   33.1486   40.5286   58.3900 H   0  0  0  0  0  0  0  0  0  0  0  0
   32.3719   38.7741   59.9531 H   0  0  0  0  0  0  0  0  0  0  0  0
   32.3134   36.4428   59.2171 H   0  0  0  0  0  0  0  0  0  0  0  0
   32.7465   34.8623   57.8973 H   0  0  0  0  0  0  0  0  0  0  0  0
   32.1118   35.2155   56.2902 H   0  0  0  0  0  0  0  0  0  0  0  0
   34.7358   34.2673   56.9209 H   0  0  0  0  0  0  0  0  0  0  0  0
  1  2  2  0  0  0  0
  2 12  1  0  0  0  0
  2  3  1  0  0  0  0
  3  4  1  0  0  0  0
  3 13  1  0  0  0  0
  3 14  1  0  0  0  0
  4  5  1  0  0  0  0
  5 10  2  0  0  0  0
  5  6  1  0  0  0  0
  6  7  2  0  0  0  0
  6 15  1  0  0  0  0
  7  8  1  0  0  0  0
  7 16  1  0  0  0  0
  8  9  2  0  0  0  0
  8 17  1  0  0  0  0
  9 10  1  0  0  0  0
  9 18  1  0  0  0  0
 10 11  1  0  0  0  0
 11 12  1  0  0  0  0
 11 19  1  0  0  0  0
 11 20  1  0  0  0  0
 12 21  1  0  0  0  0
M  END
$$$$
