ZINC000000001852      none
 OpenBabel11202420153D

 19 20  0  0  0  0  0  0  0  0999 V2000
   32.9294   35.6256   56.7919 C   0  0  0  0  0  0  0  0  0  0  0  0
   33.0210   37.0500   57.2753 C   0  0  0  0  0  0  0  0  0  0  0  0
   33.5005   37.9626   56.4104 C   0  0  0  0  0  0  0  0  0  0  0  0
   33.9366   37.6499   55.0317 C   0  0  0  0  0  0  0  0  0  0  0  0
   34.9483   38.4004   54.4297 C   0  0  0  0  0  0  0  0  0  0  0  0
   35.3335   38.1167   53.1997 N   0  0  0  0  0  0  0  0  0  0  0  0
   34.7629   37.1242   52.5385 C   0  0  0  0  0  0  0  0  0  0  0  0
   33.7591   36.3766   53.1321 C   0  0  0  0  0  0  0  0  0  0  0  0
   33.3698   36.6492   54.3630 N   0  0  0  0  0  0  0  0  0  0  0  0
   33.5466   39.5808   57.1217 S   0  0  0  0  0  0  0  0  0  0  0  0
   32.7820   39.0168   58.9626 S   0  0  0  0  0  0  0  0  0  0  0  0
   32.6083   37.3034   58.5583 C   0  0  0  0  0  0  0  0  0  0  0  0
   32.0032   36.1143   59.6311 S   0  0  0  0  0  0  0  0  0  0  0  0
   33.8977   35.1391   56.9095 H   0  0  0  0  0  0  0  0  0  0  0  0
   32.1807   35.0909   57.3764 H   0  0  0  0  0  0  0  0  0  0  0  0
   32.6436   35.6165   55.7400 H   0  0  0  0  0  0  0  0  0  0  0  0
   35.4150   39.2110   54.9696 H   0  0  0  0  0  0  0  0  0  0  0  0
   35.0810   36.8950   51.5321 H   0  0  0  0  0  0  0  0  0  0  0  0
   33.2969   35.5665   52.5876 H   0  0  0  0  0  0  0  0  0  0  0  0
  1  2  1  0  0  0  0
  1 14  1  0  0  0  0
  1 15  1  0  0  0  0
  1 16  1  0  0  0  0
  2 12  1  0  0  0  0
  2  3  2  0  0  0  0
  3  4  1  0  0  0  0
  3 10  1  0  0  0  0
  4  9  2  0  0  0  0
  4  5  1  0  0  0  0
  5  6  2  0  0  0  0
  5 17  1  0  0  0  0
  6  7  1  0  0  0  0
  7  8  2  0  0  0  0
  7 18  1  0  0  0  0
  8  9  1  0  0  0  0
  8 19  1  0  0  0  0
 10 11  1  0  0  0  0
 11 12  1  0  0  0  0
 12 13  2  0  0  0  0
M  END
$$$$
