ZINC000000001033      none
 OpenBabel11202420153D

 51 53  0  0  1  0  0  0  0  0999 V2000
   26.8325   41.4662   67.3629 C   0  0  0  0  0  0  0  0  0  0  0  0
   27.5273   41.8848   68.6330 C   0  0  0  0  0  0  0  0  0  0  0  0
   26.9193   42.9502   69.5085 C   0  0  0  0  0  0  0  0  0  0  0  0
   28.6598   41.3226   68.9760 C   0  0  0  0  0  0  0  0  0  0  0  0
   29.2678   40.2574   68.1005 C   0  0  1  0  0  0  0  0  0  0  0  0
   29.5084   40.5655   67.0830 H   0  0  0  0  0  0  0  0  0  0  0  0
   30.1935   39.2381   68.7676 C   0  0  2  0  0  0  0  0  0  0  0  0
   30.3631   39.3379   69.8397 H   0  0  0  0  0  0  0  0  0  0  0  0
   31.3683   38.7371   67.9678 C   0  0  0  0  0  0  0  0  0  0  0  0
   31.7957   37.6227   68.1553 O   0  0  0  0  0  0  0  0  0  0  0  0
   31.9401   39.5290   67.0469 O   0  0  0  0  0  0  0  0  0  0  0  0
   33.0672   38.9805   66.3143 C   0  0  0  0  0  0  0  0  0  0  0  0
   32.5695   38.2842   65.0739 C   0  0  0  0  0  0  0  0  0  0  0  0
   32.9593   37.0798   64.6195 C   0  0  0  0  0  0  0  0  0  0  0  0
   32.2793   36.8107   63.4930 O   0  0  0  0  0  0  0  0  0  0  0  0
   31.4593   37.8358   63.2093 C   0  0  0  0  0  0  0  0  0  0  0  0
   30.5314   37.9202   62.0249 C   0  0  0  0  0  0  0  0  0  0  0  0
   31.2606   37.4769   60.7828 C   0  0  0  0  0  0  0  0  0  0  0  0
   31.9429   38.4019   60.0147 C   0  0  0  0  0  0  0  0  0  0  0  0
   32.6165   37.9944   58.8785 C   0  0  0  0  0  0  0  0  0  0  0  0
   32.6035   36.6629   58.5075 C   0  0  0  0  0  0  0  0  0  0  0  0
   31.9170   35.7387   59.2727 C   0  0  0  0  0  0  0  0  0  0  0  0
   31.2429   36.1464   60.4086 C   0  0  0  0  0  0  0  0  0  0  0  0
   31.6024   38.7716   64.1649 C   0  0  0  0  0  0  0  0  0  0  0  0
   28.7958   38.8171   68.3095 C   0  0  0  0  0  0  0  0  0  0  0  0
   28.6978   37.9194   67.0743 C   0  0  0  0  0  0  0  0  0  0  0  0
   27.7428   38.5685   69.3914 C   0  0  0  0  0  0  0  0  0  0  0  0
   26.1496   40.6439   67.5765 H   0  0  0  0  0  0  0  0  0  0  0  0
   26.2712   42.3095   66.9609 H   0  0  0  0  0  0  0  0  0  0  0  0
   27.5742   41.1421   66.6329 H   0  0  0  0  0  0  0  0  0  0  0  0
   27.5592   43.1173   70.3750 H   0  0  0  0  0  0  0  0  0  0  0  0
   26.8260   43.8765   68.9417 H   0  0  0  0  0  0  0  0  0  0  0  0
   25.9331   42.6272   69.8419 H   0  0  0  0  0  0  0  0  0  0  0  0
   29.1577   41.6227   69.8862 H   0  0  0  0  0  0  0  0  0  0  0  0
   33.5971   38.2659   66.9441 H   0  0  0  0  0  0  0  0  0  0  0  0
   33.7440   39.7870   66.0314 H   0  0  0  0  0  0  0  0  0  0  0  0
   33.6919   36.4363   65.0840 H   0  0  0  0  0  0  0  0  0  0  0  0
   30.1939   38.9491   61.9004 H   0  0  0  0  0  0  0  0  0  0  0  0
   29.6702   37.2730   62.1912 H   0  0  0  0  0  0  0  0  0  0  0  0
   31.9532   39.4422   60.3048 H   0  0  0  0  0  0  0  0  0  0  0  0
   33.1533   38.7164   58.2809 H   0  0  0  0  0  0  0  0  0  0  0  0
   33.1302   36.3444   57.6200 H   0  0  0  0  0  0  0  0  0  0  0  0
   31.9068   34.6985   58.9828 H   0  0  0  0  0  0  0  0  0  0  0  0
   30.7062   35.4244   61.0063 H   0  0  0  0  0  0  0  0  0  0  0  0
   31.0788   39.7142   64.2261 H   0  0  0  0  0  0  0  0  0  0  0  0
   29.3089   37.0292   67.2228 H   0  0  0  0  0  0  0  0  0  0  0  0
   27.6594   37.6260   66.9200 H   0  0  0  0  0  0  0  0  0  0  0  0
   29.0552   38.4640   66.2003 H   0  0  0  0  0  0  0  0  0  0  0  0
   28.1331   38.8868   70.3581 H   0  0  0  0  0  0  0  0  0  0  0  0
   26.8418   39.1361   69.1586 H   0  0  0  0  0  0  0  0  0  0  0  0
   27.5034   37.5058   69.4281 H   0  0  0  0  0  0  0  0  0  0  0  0
  1  2  1  0  0  0  0
  1 28  1  0  0  0  0
  1 29  1  0  0  0  0
  1 30  1  0  0  0  0
  2  3  1  0  0  0  0
  2  4  2  0  0  0  0
  3 31  1  0  0  0  0
  3 32  1  0  0  0  0
  3 33  1  0  0  0  0
  4  5  1  0  0  0  0
  4 34  1  0  0  0  0
  5  6  1  6  0  0  0
  5 25  1  0  0  0  0
  5  7  1  0  0  0  0
  7  8  1  1  0  0  0
  7  9  1  0  0  0  0
  7 25  1  0  0  0  0
  9 10  2  0  0  0  0
  9 11  1  0  0  0  0
 11 12  1  0  0  0  0
 12 13  1  0  0  0  0
 12 35  1  0  0  0  0
 12 36  1  0  0  0  0
 13 24  1  0  0  0  0
 13 14  2  0  0  0  0
 14 15  1  0  0  0  0
 14 37  1  0  0  0  0
 15 16  1  0  0  0  0
 16 17  1  0  0  0  0
 16 24  2  0  0  0  0
 17 18  1  0  0  0  0
 17 38  1  0  0  0  0
 17 39  1  0  0  0  0
 18 23  2  0  0  0  0
 18 19  1  0  0  0  0
 19 20  2  0  0  0  0
 19 40  1  0  0  0  0
 20 21  1  0  0  0  0
 20 41  1  0  0  0  0
 21 22  2  0  0  0  0
 21 42  1  0  0  0  0
 22 23  1  0  0  0  0
 22 43  1  0  0  0  0
 23 44  1  0  0  0  0
 24 45  1  0  0  0  0
 25 26  1  0  0  0  0
 25 27  1  0  0  0  0
 26 46  1  0  0  0  0
 26 47  1  0  0  0  0
 26 48  1  0  0  0  0
 27 49  1  0  0  0  0
 27 50  1  0  0  0  0
 27 51  1  0  0  0  0
M  END
$$$$
