ZINC000000054140      none
 OpenBabel11202420153D

 35 36  0  0  0  0  0  0  0  0999 V2000
   29.4931   39.3316   66.3085 C   0  0  0  0  0  0  0  0  0  0  0  0
   29.3560   38.0018   65.8035 O   0  0  0  0  0  0  0  0  0  0  0  0
   29.7367   37.7882   64.5158 C   0  0  0  0  0  0  0  0  0  0  0  0
   29.6306   36.5204   63.9627 C   0  0  0  0  0  0  0  0  0  0  0  0
   30.0175   36.3025   62.6553 C   0  0  0  0  0  0  0  0  0  0  0  0
   30.5126   37.3531   61.8938 C   0  0  0  0  0  0  0  0  0  0  0  0
   30.9056   37.1327   60.5679 N   0  0  0  0  0  0  0  0  0  0  0  0
   32.1772   37.3752   60.1929 C   0  0  0  0  0  0  0  0  0  0  0  0
   32.9831   37.7851   61.0058 O   0  0  0  0  0  0  0  0  0  0  0  0
   32.5920   37.1430   58.7941 C   0  0  0  0  0  0  0  0  0  0  0  0
   32.4910   35.8705   58.2251 C   0  0  0  0  0  0  0  0  0  0  0  0
   31.8741   34.5513   59.1699 Cl  0  0  0  0  0  0  0  0  0  0  0  0
   32.8607   35.6636   56.9771 N   0  0  0  0  0  0  0  0  0  0  0  0
   33.3356   36.6349   56.2208 C   0  0  0  0  0  0  0  0  0  0  0  0
   33.7421   36.3372   54.8005 C   0  0  0  0  0  0  0  0  0  0  0  0
   33.4663   37.9231   56.7104 C   0  0  0  0  0  0  0  0  0  0  0  0
   34.0930   39.1865   55.6981 Cl  0  0  0  0  0  0  0  0  0  0  0  0
   33.0973   38.1924   58.0179 C   0  0  0  0  0  0  0  0  0  0  0  0
   33.2313   39.5808   58.5884 C   0  0  0  0  0  0  0  0  0  0  0  0
   30.6231   38.6208   62.4497 C   0  0  0  0  0  0  0  0  0  0  0  0
   30.2316   38.8380   63.7559 C   0  0  0  0  0  0  0  0  0  0  0  0
   28.8897   40.0123   65.7079 H   0  0  0  0  0  0  0  0  0  0  0  0
   29.1548   39.3638   67.3441 H   0  0  0  0  0  0  0  0  0  0  0  0
   30.5393   39.6332   66.2585 H   0  0  0  0  0  0  0  0  0  0  0  0
   29.2456   35.7035   64.5550 H   0  0  0  0  0  0  0  0  0  0  0  0
   29.9354   35.3153   62.2250 H   0  0  0  0  0  0  0  0  0  0  0  0
   30.2628   36.8057   59.9194 H   0  0  0  0  0  0  0  0  0  0  0  0
   34.7926   36.0478   54.7764 H   0  0  0  0  0  0  0  0  0  0  0  0
   33.1317   35.5223   54.4113 H   0  0  0  0  0  0  0  0  0  0  0  0
   33.5958   37.2260   54.1868 H   0  0  0  0  0  0  0  0  0  0  0  0
   32.3105   40.1367   58.4115 H   0  0  0  0  0  0  0  0  0  0  0  0
   33.4166   39.5166   59.6606 H   0  0  0  0  0  0  0  0  0  0  0  0
   34.0636   40.0932   58.1058 H   0  0  0  0  0  0  0  0  0  0  0  0
   31.0117   39.4374   61.8593 H   0  0  0  0  0  0  0  0  0  0  0  0
   30.3147   39.8245   64.1874 H   0  0  0  0  0  0  0  0  0  0  0  0
  1  2  1  0  0  0  0
  1 22  1  0  0  0  0
  1 23  1  0  0  0  0
  1 24  1  0  0  0  0
  2  3  1  0  0  0  0
  3 21  2  0  0  0  0
  3  4  1  0  0  0  0
  4  5  2  0  0  0  0
  4 25  1  0  0  0  0
  5  6  1  0  0  0  0
  5 26  1  0  0  0  0
  6  7  1  0  0  0  0
  6 20  2  0  0  0  0
  7  8  1  0  0  0  0
  7 27  1  0  0  0  0
  8  9  2  0  0  0  0
  8 10  1  0  0  0  0
 10 18  2  0  0  0  0
 10 11  1  0  0  0  0
 11 12  1  0  0  0  0
 11 13  2  0  0  0  0
 13 14  1  0  0  0  0
 14 15  1  0  0  0  0
 14 16  2  0  0  0  0
 15 28  1  0  0  0  0
 15 29  1  0  0  0  0
 15 30  1  0  0  0  0
 16 17  1  0  0  0  0
 16 18  1  0  0  0  0
 18 19  1  0  0  0  0
 19 31  1  0  0  0  0
 19 32  1  0  0  0  0
 19 33  1  0  0  0  0
 20 21  1  0  0  0  0
 20 34  1  0  0  0  0
 21 35  1  0  0  0  0
M  END
$$$$
