ZINC000000000171      none
 OpenBabel11202420153D

 40 41  0  0  1  0  0  0  0  0999 V2000
   32.9563   39.7703   59.1475 C   0  0  0  0  0  0  0  0  0  0  0  0
   32.8303   38.3801   58.5796 C   0  0  0  0  0  0  0  0  0  0  0  0
   33.1900   38.1331   57.2678 C   0  0  0  0  0  0  0  0  0  0  0  0
   33.7868   39.4253   56.2740 Cl  0  0  0  0  0  0  0  0  0  0  0  0
   33.0689   36.8577   56.7446 C   0  0  0  0  0  0  0  0  0  0  0  0
   32.5935   35.8260   57.5332 C   0  0  0  0  0  0  0  0  0  0  0  0
   32.2379   36.0653   58.8459 C   0  0  0  0  0  0  0  0  0  0  0  0
   32.3580   37.3444   59.3749 C   0  0  0  0  0  0  0  0  0  0  0  0
   31.9989   37.5894   60.7034 N   0  0  0  0  0  0  0  0  0  0  0  0
   30.7048   37.3447   61.1264 C   0  0  0  0  0  0  0  0  0  0  0  0
   29.8089   36.8781   60.2699 N   0  0  0  0  0  0  0  0  0  0  0  0
   28.5653   36.6313   60.6315 C   0  0  0  0  0  0  0  0  0  0  0  0
   28.1388   36.8498   61.9299 C   0  0  0  0  0  0  0  0  0  0  0  0
   29.0300   37.3413   62.8663 C   0  0  0  0  0  0  0  0  0  0  0  0
   30.3472   37.5928   62.4632 C   0  0  0  0  0  0  0  0  0  0  0  0
   31.3386   38.1120   63.4207 C   0  0  0  0  0  0  0  0  0  0  0  0
   32.5148   37.8371   63.2868 O   0  0  0  0  0  0  0  0  0  0  0  0
   30.9414   38.8920   64.4454 O   0  0  0  0  0  0  0  0  0  0  0  0
   31.9727   39.3679   65.3500 C   0  0  0  0  0  0  0  0  0  0  0  0
   32.1547   38.3635   66.4897 C   0  0  2  0  0  0  0  0  0  0  0  0
   32.4490   37.3975   66.0791 H   0  0  0  0  0  0  0  0  0  0  0  0
   30.9238   38.2232   67.2021 O   0  0  0  0  0  0  0  0  0  0  0  0
   33.2414   38.8650   67.4428 C   0  0  0  0  0  0  0  0  0  0  0  0
   34.4726   39.0055   66.7297 O   0  0  0  0  0  0  0  0  0  0  0  0
   33.9477   39.8965   59.5828 H   0  0  0  0  0  0  0  0  0  0  0  0
   32.8128   40.5020   58.3524 H   0  0  0  0  0  0  0  0  0  0  0  0
   32.1996   39.9181   59.9181 H   0  0  0  0  0  0  0  0  0  0  0  0
   33.3459   36.6678   55.7182 H   0  0  0  0  0  0  0  0  0  0  0  0
   32.5005   34.8317   57.1220 H   0  0  0  0  0  0  0  0  0  0  0  0
   31.8670   35.2587   59.4610 H   0  0  0  0  0  0  0  0  0  0  0  0
   32.6570   37.9310   61.3286 H   0  0  0  0  0  0  0  0  0  0  0  0
   27.8665   36.2513   59.9010 H   0  0  0  0  0  0  0  0  0  0  0  0
   27.1163   36.6420   62.2087 H   0  0  0  0  0  0  0  0  0  0  0  0
   28.7185   37.5234   63.8843 H   0  0  0  0  0  0  0  0  0  0  0  0
   32.9116   39.4749   64.8066 H   0  0  0  0  0  0  0  0  0  0  0  0
   31.6786   40.3339   65.7605 H   0  0  0  0  0  0  0  0  0  0  0  0
   30.9657   37.6001   67.9405 H   0  0  0  0  0  0  0  0  0  0  0  0
   32.9472   39.8309   67.8533 H   0  0  0  0  0  0  0  0  0  0  0  0
   33.3711   38.1493   68.2547 H   0  0  0  0  0  0  0  0  0  0  0  0
   35.2075   39.3202   67.2737 H   0  0  0  0  0  0  0  0  0  0  0  0
  1  2  1  0  0  0  0
  1 25  1  0  0  0  0
  1 26  1  0  0  0  0
  1 27  1  0  0  0  0
  2  8  2  0  0  0  0
  2  3  1  0  0  0  0
  3  4  1  0  0  0  0
  3  5  2  0  0  0  0
  5  6  1  0  0  0  0
  5 28  1  0  0  0  0
  6  7  2  0  0  0  0
  6 29  1  0  0  0  0
  7  8  1  0  0  0  0
  7 30  1  0  0  0  0
  8  9  1  0  0  0  0
  9 10  1  0  0  0  0
  9 31  1  0  0  0  0
 10 15  2  0  0  0  0
 10 11  1  0  0  0  0
 11 12  2  0  0  0  0
 12 13  1  0  0  0  0
 12 32  1  0  0  0  0
 13 14  2  0  0  0  0
 13 33  1  0  0  0  0
 14 15  1  0  0  0  0
 14 34  1  0  0  0  0
 15 16  1  0  0  0  0
 16 17  2  0  0  0  0
 16 18  1  0  0  0  0
 18 19  1  0  0  0  0
 19 20  1  0  0  0  0
 19 35  1  0  0  0  0
 19 36  1  0  0  0  0
 20 21  1  6  0  0  0
 20 22  1  0  0  0  0
 20 23  1  0  0  0  0
 22 37  1  0  0  0  0
 23 24  1  0  0  0  0
 23 38  1  0  0  0  0
 23 39  1  0  0  0  0
 24 40  1  0  0  0  0
M  END
$$$$
