ZINC000000033631      none
 OpenBabel11202420153D

 34 36  0  0  0  0  0  0  0  0999 V2000
   34.4588   39.5173   54.9468 C   0  0  0  0  0  0  0  0  0  0  0  0
   33.9429   38.5306   55.8989 N   0  0  0  0  0  0  0  0  0  0  0  0
   33.7953   37.2544   55.5716 C   0  0  0  0  0  0  0  0  0  0  0  0
   34.1715   36.5852   54.0414 S   0  0  0  0  0  0  0  0  0  0  0  0
   33.1576   36.3493   56.9363 S   0  0  0  0  0  0  0  0  0  0  0  0
   33.1213   37.8049   57.9227 C   0  0  0  0  0  0  0  0  0  0  0  0
   32.7213   38.0183   59.2480 C   0  0  0  0  0  0  0  0  0  0  0  0
   32.2519   36.9662   60.0211 N   0  0  0  0  0  0  0  0  0  0  0  0
   30.8276   36.6885   59.7302 C   0  0  0  0  0  0  0  0  0  0  0  0
   30.2013   35.7488   60.7242 C   0  0  0  0  0  0  0  0  0  0  0  0
   29.5240   36.5856   61.8297 C   0  0  0  0  0  0  0  0  0  0  0  0
   30.4854   37.0984   62.7995 C   0  0  0  0  0  0  0  0  0  0  0  0
   31.5290   38.0304   62.1486 C   0  0  0  0  0  0  0  0  0  0  0  0
   32.5584   37.1821   61.4528 C   0  0  0  0  0  0  0  0  0  0  0  0
   32.8046   39.2443   59.7546 N   0  0  0  0  0  0  0  0  0  0  0  0
   33.2468   40.2437   59.0164 C   0  0  0  0  0  0  0  0  0  0  0  0
   33.6300   40.0824   57.7716 N   0  0  0  0  0  0  0  0  0  0  0  0
   33.5860   38.8773   57.1768 C   0  0  0  0  0  0  0  0  0  0  0  0
   35.5443   39.5697   55.0302 H   0  0  0  0  0  0  0  0  0  0  0  0
   34.1860   39.2217   53.9337 H   0  0  0  0  0  0  0  0  0  0  0  0
   34.0297   40.4946   55.1681 H   0  0  0  0  0  0  0  0  0  0  0  0
   30.2769   37.6291   59.7406 H   0  0  0  0  0  0  0  0  0  0  0  0
   30.7510   36.2499   58.7353 H   0  0  0  0  0  0  0  0  0  0  0  0
   30.9713   35.1152   61.1645 H   0  0  0  0  0  0  0  0  0  0  0  0
   29.4558   35.1306   60.2243 H   0  0  0  0  0  0  0  0  0  0  0  0
   28.7958   35.9626   62.3489 H   0  0  0  0  0  0  0  0  0  0  0  0
   29.0038   37.4254   61.3691 H   0  0  0  0  0  0  0  0  0  0  0  0
   31.0021   36.2584   63.2636 H   0  0  0  0  0  0  0  0  0  0  0  0
   29.9494   37.6516   63.5708 H   0  0  0  0  0  0  0  0  0  0  0  0
   32.0110   38.6343   62.9175 H   0  0  0  0  0  0  0  0  0  0  0  0
   31.0383   38.6796   61.4233 H   0  0  0  0  0  0  0  0  0  0  0  0
   32.6109   36.2140   61.9509 H   0  0  0  0  0  0  0  0  0  0  0  0
   33.5295   37.6702   61.5346 H   0  0  0  0  0  0  0  0  0  0  0  0
   33.2998   41.2299   59.4535 H   0  0  0  0  0  0  0  0  0  0  0  0
  1  2  1  0  0  0  0
  1 19  1  0  0  0  0
  1 20  1  0  0  0  0
  1 21  1  0  0  0  0
  2 18  1  0  0  0  0
  2  3  1  0  0  0  0
  3  4  2  0  0  0  0
  3  5  1  0  0  0  0
  5  6  1  0  0  0  0
  6 18  2  0  0  0  0
  6  7  1  0  0  0  0
  7  8  1  0  0  0  0
  7 15  2  0  0  0  0
  8 14  1  0  0  0  0
  8  9  1  0  0  0  0
  9 10  1  0  0  0  0
  9 22  1  0  0  0  0
  9 23  1  0  0  0  0
 10 11  1  0  0  0  0
 10 24  1  0  0  0  0
 10 25  1  0  0  0  0
 11 12  1  0  0  0  0
 11 26  1  0  0  0  0
 11 27  1  0  0  0  0
 12 13  1  0  0  0  0
 12 28  1  0  0  0  0
 12 29  1  0  0  0  0
 13 14  1  0  0  0  0
 13 30  1  0  0  0  0
 13 31  1  0  0  0  0
 14 32  1  0  0  0  0
 14 33  1  0  0  0  0
 15 16  1  0  0  0  0
 16 17  2  0  0  0  0
 16 34  1  0  0  0  0
 17 18  1  0  0  0  0
M  END
$$$$
