ZINC000000053233      none
 OpenBabel11202420153D

 33 35  0  0  0  0  0  0  0  0999 V2000
   33.6583   36.7131   55.1713 C   0  0  0  0  0  0  0  0  0  0  0  0
   33.2728   36.9284   56.6121 C   0  0  0  0  0  0  0  0  0  0  0  0
   33.3909   38.1865   57.1759 C   0  0  0  0  0  0  0  0  0  0  0  0
   33.0395   38.3908   58.4940 C   0  0  0  0  0  0  0  0  0  0  0  0
   33.1687   39.7618   59.1063 C   0  0  0  0  0  0  0  0  0  0  0  0
   32.5642   37.3243   59.2599 C   0  0  0  0  0  0  0  0  0  0  0  0
   32.1859   37.5355   60.6719 C   0  0  0  0  0  0  0  0  0  0  0  0
   31.2629   38.3590   61.1142 N   0  0  0  0  0  0  0  0  0  0  0  0
   31.2019   38.2849   62.3971 N   0  0  0  0  0  0  0  0  0  0  0  0
   32.0863   37.4086   62.8264 C   0  0  0  0  0  0  0  0  0  0  0  0
   32.3316   37.0343   64.2254 C   0  0  0  0  0  0  0  0  0  0  0  0
   31.7110   36.0285   64.9064 C   0  0  0  0  0  0  0  0  0  0  0  0
   32.2456   36.0311   66.2076 C   0  0  0  0  0  0  0  0  0  0  0  0
   33.1628   37.0191   66.2577 C   0  0  0  0  0  0  0  0  0  0  0  0
   33.2095   37.6248   65.0608 O   0  0  0  0  0  0  0  0  0  0  0  0
   32.7296   36.9222   61.7442 O   0  0  0  0  0  0  0  0  0  0  0  0
   32.4535   36.0559   58.6863 C   0  0  0  0  0  0  0  0  0  0  0  0
   31.9480   34.8975   59.5070 C   0  0  0  0  0  0  0  0  0  0  0  0
   32.8031   35.8670   57.3654 C   0  0  0  0  0  0  0  0  0  0  0  0
   34.7122   36.4410   55.1138 H   0  0  0  0  0  0  0  0  0  0  0  0
   33.0526   35.9112   54.7491 H   0  0  0  0  0  0  0  0  0  0  0  0
   33.4888   37.6311   54.6087 H   0  0  0  0  0  0  0  0  0  0  0  0
   33.7586   39.0105   56.5824 H   0  0  0  0  0  0  0  0  0  0  0  0
   34.1608   39.8722   59.5439 H   0  0  0  0  0  0  0  0  0  0  0  0
   33.0251   40.5190   58.3355 H   0  0  0  0  0  0  0  0  0  0  0  0
   32.4135   39.8857   59.8825 H   0  0  0  0  0  0  0  0  0  0  0  0
   30.9526   35.3623   64.5223 H   0  0  0  0  0  0  0  0  0  0  0  0
   31.9747   35.3654   67.0139 H   0  0  0  0  0  0  0  0  0  0  0  0
   33.7576   37.2822   67.1199 H   0  0  0  0  0  0  0  0  0  0  0  0
   30.8637   34.8330   59.4153 H   0  0  0  0  0  0  0  0  0  0  0  0
   32.3986   33.9728   59.1464 H   0  0  0  0  0  0  0  0  0  0  0  0
   32.2159   35.0486   60.5526 H   0  0  0  0  0  0  0  0  0  0  0  0
   32.7134   34.8876   56.9192 H   0  0  0  0  0  0  0  0  0  0  0  0
  1  2  1  0  0  0  0
  1 20  1  0  0  0  0
  1 21  1  0  0  0  0
  1 22  1  0  0  0  0
  2 19  2  0  0  0  0
  2  3  1  0  0  0  0
  3  4  2  0  0  0  0
  3 23  1  0  0  0  0
  4  5  1  0  0  0  0
  4  6  1  0  0  0  0
  5 24  1  0  0  0  0
  5 25  1  0  0  0  0
  5 26  1  0  0  0  0
  6  7  1  0  0  0  0
  6 17  2  0  0  0  0
  7 16  1  0  0  0  0
  7  8  2  0  0  0  0
  8  9  1  0  0  0  0
  9 10  2  0  0  0  0
 10 11  1  0  0  0  0
 10 16  1  0  0  0  0
 11 15  1  0  0  0  0
 11 12  2  0  0  0  0
 12 13  1  0  0  0  0
 12 27  1  0  0  0  0
 13 14  2  0  0  0  0
 13 28  1  0  0  0  0
 14 15  1  0  0  0  0
 14 29  1  0  0  0  0
 17 18  1  0  0  0  0
 17 19  1  0  0  0  0
 18 30  1  0  0  0  0
 18 31  1  0  0  0  0
 18 32  1  0  0  0  0
 19 33  1  0  0  0  0
M  END
$$$$
