ZINC000000046995      none
 OpenBabel11202420153D

 41 42  0  0  0  0  0  0  0  0999 V2000
   34.0328   35.4599   55.1895 C   0  0  0  0  0  0  0  0  0  0  0  0
   33.2482   35.6525   56.4617 C   0  0  0  0  0  0  0  0  0  0  0  0
   32.4919   34.7852   56.8448 O   0  0  0  0  0  0  0  0  0  0  0  0
   33.3869   36.7885   57.1736 N   0  0  0  0  0  0  0  0  0  0  0  0
   32.6627   36.9648   58.3578 C   0  0  0  0  0  0  0  0  0  0  0  0
   32.8086   38.1322   59.0956 C   0  0  0  0  0  0  0  0  0  0  0  0
   32.0880   38.3055   60.2610 C   0  0  0  0  0  0  0  0  0  0  0  0
   31.2301   37.3134   60.6992 C   0  0  0  0  0  0  0  0  0  0  0  0
   30.3177   37.5356   62.1900 S   0  0  0  0  0  0  0  0  0  0  0  0
   30.2254   38.9382   62.3988 O   0  0  0  0  0  0  0  0  0  0  0  0
   29.1814   36.6875   62.0953 O   0  0  0  0  0  0  0  0  0  0  0  0
   31.2447   36.9389   63.4257 N   0  0  0  0  0  0  0  0  0  0  0  0
   32.1963   37.8059   64.1338 C   0  0  0  0  0  0  0  0  0  0  0  0
   31.9064   37.7217   65.6401 C   0  0  0  0  0  0  0  0  0  0  0  0
   31.9444   36.2563   66.0798 C   0  0  0  0  0  0  0  0  0  0  0  0
   31.6974   36.1710   67.5640 C   0  0  0  0  0  0  0  0  0  0  0  0
   30.5440   36.6364   68.0830 N   0  0  0  0  0  0  0  0  0  0  0  0
   32.5365   35.6834   68.2914 O   0  0  0  0  0  0  0  0  0  0  0  0
   30.8616   35.4706   65.3367 C   0  0  0  0  0  0  0  0  0  0  0  0
   31.1356   35.5307   63.8308 C   0  0  0  0  0  0  0  0  0  0  0  0
   31.0872   36.1472   59.9700 C   0  0  0  0  0  0  0  0  0  0  0  0
   31.8006   35.9701   58.8008 C   0  0  0  0  0  0  0  0  0  0  0  0
   34.9862   34.9841   55.4191 H   0  0  0  0  0  0  0  0  0  0  0  0
   33.4665   34.8278   54.5057 H   0  0  0  0  0  0  0  0  0  0  0  0
   34.2132   36.4288   54.7237 H   0  0  0  0  0  0  0  0  0  0  0  0
   33.9919   37.4819   56.8672 H   0  0  0  0  0  0  0  0  0  0  0  0
   33.4819   38.9055   58.7561 H   0  0  0  0  0  0  0  0  0  0  0  0
   32.1976   39.2152   60.8327 H   0  0  0  0  0  0  0  0  0  0  0  0
   33.2141   37.4701   63.9354 H   0  0  0  0  0  0  0  0  0  0  0  0
   32.0760   38.8346   63.7941 H   0  0  0  0  0  0  0  0  0  0  0  0
   30.9206   38.1382   65.8472 H   0  0  0  0  0  0  0  0  0  0  0  0
   32.6622   38.2853   66.1869 H   0  0  0  0  0  0  0  0  0  0  0  0
   32.9224   35.8334   65.8498 H   0  0  0  0  0  0  0  0  0  0  0  0
   29.8729   37.0263   67.5013 H   0  0  0  0  0  0  0  0  0  0  0  0
   30.3848   36.5814   69.0382 H   0  0  0  0  0  0  0  0  0  0  0  0
   29.8858   35.9084   65.5467 H   0  0  0  0  0  0  0  0  0  0  0  0
   30.8734   34.4321   65.6674 H   0  0  0  0  0  0  0  0  0  0  0  0
   30.3153   35.0577   63.2909 H   0  0  0  0  0  0  0  0  0  0  0  0
   32.0678   35.0125   63.6058 H   0  0  0  0  0  0  0  0  0  0  0  0
   30.4167   35.3741   60.3151 H   0  0  0  0  0  0  0  0  0  0  0  0
   31.6885   35.0591   58.2318 H   0  0  0  0  0  0  0  0  0  0  0  0
  1  2  1  0  0  0  0
  1 23  1  0  0  0  0
  1 24  1  0  0  0  0
  1 25  1  0  0  0  0
  2  3  2  0  0  0  0
  2  4  1  0  0  0  0
  4  5  1  0  0  0  0
  4 26  1  0  0  0  0
  5 22  2  0  0  0  0
  5  6  1  0  0  0  0
  6  7  2  0  0  0  0
  6 27  1  0  0  0  0
  7  8  1  0  0  0  0
  7 28  1  0  0  0  0
  8  9  1  0  0  0  0
  8 21  2  0  0  0  0
  9 10  2  0  0  0  0
  9 11  2  0  0  0  0
  9 12  1  0  0  0  0
 12 20  1  0  0  0  0
 12 13  1  0  0  0  0
 13 14  1  0  0  0  0
 13 29  1  0  0  0  0
 13 30  1  0  0  0  0
 14 15  1  0  0  0  0
 14 31  1  0  0  0  0
 14 32  1  0  0  0  0
 15 16  1  0  0  0  0
 15 19  1  0  0  0  0
 15 33  1  0  0  0  0
 16 17  1  0  0  0  0
 16 18  2  0  0  0  0
 17 34  1  0  0  0  0
 17 35  1  0  0  0  0
 19 20  1  0  0  0  0
 19 36  1  0  0  0  0
 19 37  1  0  0  0  0
 20 38  1  0  0  0  0
 20 39  1  0  0  0  0
 21 22  1  0  0  0  0
 21 40  1  0  0  0  0
 22 41  1  0  0  0  0
M  END
$$$$
