ZINC000000036095      none
 OpenBabel11202420153D

 33 34  0  0  0  0  0  0  0  0999 V2000
   29.4406   38.8998   64.7663 N   0  0  0  0  0  0  0  0  0  0  0  0
   30.0479   38.5625   63.5623 C   0  0  0  0  0  0  0  0  0  0  0  0
   30.3075   39.3858   62.5959 N   0  0  0  0  0  0  0  0  0  0  0  0
   30.9162   38.8337   61.4903 N   0  0  0  0  0  0  0  0  0  0  0  0
   31.1517   37.5607   61.5575 C   0  0  0  0  0  0  0  0  0  0  0  0
   31.9163   36.5958   60.2968 S   0  0  0  0  0  0  0  0  0  0  0  0
   32.2446   37.8140   58.9933 C   0  0  0  0  0  0  0  0  0  0  0  0
   32.9088   37.1325   57.8248 C   0  0  0  0  0  0  0  0  0  0  0  0
   33.6800   37.7499   57.1211 O   0  0  0  0  0  0  0  0  0  0  0  0
   32.6458   35.8371   57.5615 N   0  0  0  0  0  0  0  0  0  0  0  0
   33.2915   35.1746   56.4256 C   0  0  0  0  0  0  0  0  0  0  0  0
   32.8241   33.7198   56.3507 C   0  0  0  0  0  0  0  0  0  0  0  0
   33.4883   33.0383   55.1821 C   0  0  0  0  0  0  0  0  0  0  0  0
   32.8822   33.0492   53.9399 C   0  0  0  0  0  0  0  0  0  0  0  0
   33.4938   32.4281   52.8670 C   0  0  0  0  0  0  0  0  0  0  0  0
   34.7066   31.7874   53.0387 C   0  0  0  0  0  0  0  0  0  0  0  0
   35.3102   31.7720   54.2821 C   0  0  0  0  0  0  0  0  0  0  0  0
   34.7011   32.3975   55.3539 C   0  0  0  0  0  0  0  0  0  0  0  0
   30.5869   36.9493   63.1086 S   0  0  0  0  0  0  0  0  0  0  0  0
   29.1741   39.8171   64.9348 H   0  0  0  0  0  0  0  0  0  0  0  0
   29.2835   38.2179   65.4379 H   0  0  0  0  0  0  0  0  0  0  0  0
   31.3048   38.2598   58.6676 H   0  0  0  0  0  0  0  0  0  0  0  0
   32.9012   38.5929   59.3809 H   0  0  0  0  0  0  0  0  0  0  0  0
   32.0289   35.3435   58.1244 H   0  0  0  0  0  0  0  0  0  0  0  0
   33.0233   35.6905   55.5037 H   0  0  0  0  0  0  0  0  0  0  0  0
   34.3734   35.2025   56.5559 H   0  0  0  0  0  0  0  0  0  0  0  0
   33.0925   33.2038   57.2727 H   0  0  0  0  0  0  0  0  0  0  0  0
   31.7423   33.6920   56.2205 H   0  0  0  0  0  0  0  0  0  0  0  0
   31.9326   33.5460   53.8067 H   0  0  0  0  0  0  0  0  0  0  0  0
   33.0220   32.4398   51.8955 H   0  0  0  0  0  0  0  0  0  0  0  0
   35.1823   31.2985   52.2014 H   0  0  0  0  0  0  0  0  0  0  0  0
   36.2576   31.2711   54.4164 H   0  0  0  0  0  0  0  0  0  0  0  0
   35.1725   32.3853   56.3255 H   0  0  0  0  0  0  0  0  0  0  0  0
  1  2  1  0  0  0  0
  1 20  1  0  0  0  0
  1 21  1  0  0  0  0
  2 19  1  0  0  0  0
  2  3  2  0  0  0  0
  3  4  1  0  0  0  0
  4  5  2  0  0  0  0
  5  6  1  0  0  0  0
  5 19  1  0  0  0  0
  6  7  1  0  0  0  0
  7  8  1  0  0  0  0
  7 22  1  0  0  0  0
  7 23  1  0  0  0  0
  8  9  2  0  0  0  0
  8 10  1  0  0  0  0
 10 11  1  0  0  0  0
 10 24  1  0  0  0  0
 11 12  1  0  0  0  0
 11 25  1  0  0  0  0
 11 26  1  0  0  0  0
 12 13  1  0  0  0  0
 12 27  1  0  0  0  0
 12 28  1  0  0  0  0
 13 18  2  0  0  0  0
 13 14  1  0  0  0  0
 14 15  2  0  0  0  0
 14 29  1  0  0  0  0
 15 16  1  0  0  0  0
 15 30  1  0  0  0  0
 16 17  2  0  0  0  0
 16 31  1  0  0  0  0
 17 18  1  0  0  0  0
 17 32  1  0  0  0  0
 18 33  1  0  0  0  0
M  END
$$$$
