ZINC000000033416      none
 OpenBabel11202420153D

 31 32  0  0  0  0  0  0  0  0999 V2000
   32.1728   33.3470   59.7384 C   0  0  0  0  0  0  0  0  0  0  0  0
   32.1212   34.7853   60.0124 N   0  0  0  0  0  0  0  0  0  0  0  0
   31.7622   35.3141   61.1264 N   0  0  0  0  0  0  0  0  0  0  0  0
   31.8145   36.6202   61.0623 C   0  0  0  0  0  0  0  0  0  0  0  0
   32.2555   36.9690   59.7838 C   0  0  0  0  0  0  0  0  0  0  0  0
   32.4681   38.3326   59.2488 N   0  0  0  0  0  0  0  0  0  0  0  0
   32.2523   39.3033   59.9523 O   0  0  0  0  0  0  0  0  0  0  0  0
   32.8588   38.4842   58.1051 O   0  0  0  0  0  0  0  0  0  0  0  0
   32.4510   35.7684   59.1231 C   0  0  0  0  0  0  0  0  0  0  0  0
   32.9150   35.5876   57.7387 C   0  0  0  0  0  0  0  0  0  0  0  0
   33.5460   34.5933   57.4336 O   0  0  0  0  0  0  0  0  0  0  0  0
   32.6409   36.5236   56.8085 N   0  0  0  0  0  0  0  0  0  0  0  0
   33.0820   36.3518   55.4926 C   0  0  0  0  0  0  0  0  0  0  0  0
   32.6603   35.2526   54.7551 C   0  0  0  0  0  0  0  0  0  0  0  0
   33.1018   35.0833   53.4577 C   0  0  0  0  0  0  0  0  0  0  0  0
   33.9548   36.0119   52.8891 C   0  0  0  0  0  0  0  0  0  0  0  0
   34.3720   37.1096   53.6187 C   0  0  0  0  0  0  0  0  0  0  0  0
   35.3009   38.1190   52.9947 C   0  0  0  0  0  0  0  0  0  0  0  0
   35.5972   37.7321   51.6834 F   0  0  0  0  0  0  0  0  0  0  0  0
   34.6844   39.3749   52.9823 F   0  0  0  0  0  0  0  0  0  0  0  0
   36.4833   38.1873   53.7393 F   0  0  0  0  0  0  0  0  0  0  0  0
   33.9383   37.2823   54.9187 C   0  0  0  0  0  0  0  0  0  0  0  0
   33.2007   32.9962   59.8313 H   0  0  0  0  0  0  0  0  0  0  0  0
   31.5423   32.8181   60.4532 H   0  0  0  0  0  0  0  0  0  0  0  0
   31.8139   33.1567   58.7269 H   0  0  0  0  0  0  0  0  0  0  0  0
   31.5616   37.3065   61.8569 H   0  0  0  0  0  0  0  0  0  0  0  0
   32.1379   37.3164   57.0517 H   0  0  0  0  0  0  0  0  0  0  0  0
   31.9909   34.5296   55.1972 H   0  0  0  0  0  0  0  0  0  0  0  0
   32.7774   34.2270   52.8850 H   0  0  0  0  0  0  0  0  0  0  0  0
   34.2952   35.8793   51.8727 H   0  0  0  0  0  0  0  0  0  0  0  0
   34.2645   38.1402   55.4879 H   0  0  0  0  0  0  0  0  0  0  0  0
  1  2  1  0  0  0  0
  1 23  1  0  0  0  0
  1 24  1  0  0  0  0
  1 25  1  0  0  0  0
  2  9  1  0  0  0  0
  2  3  1  0  0  0  0
  3  4  2  0  0  0  0
  4  5  1  0  0  0  0
  4 26  1  0  0  0  0
  5  6  1  0  0  0  0
  5  9  2  0  0  0  0
  6  7  2  0  0  0  0
  6  8  2  0  0  0  0
  9 10  1  0  0  0  0
 10 11  2  0  0  0  0
 10 12  1  0  0  0  0
 12 13  1  0  0  0  0
 12 27  1  0  0  0  0
 13 22  2  0  0  0  0
 13 14  1  0  0  0  0
 14 15  2  0  0  0  0
 14 28  1  0  0  0  0
 15 16  1  0  0  0  0
 15 29  1  0  0  0  0
 16 17  2  0  0  0  0
 16 30  1  0  0  0  0
 17 18  1  0  0  0  0
 17 22  1  0  0  0  0
 18 19  1  0  0  0  0
 18 20  1  0  0  0  0
 18 21  1  0  0  0  0
 22 31  1  0  0  0  0
M  END
$$$$
