ZINC000000035827      none
 OpenBabel11202420153D

 24 25  0  0  0  0  0  0  0  0999 V2000
   33.9034   36.6213   64.7831 N   0  0  0  0  0  0  0  0  0  0  0  0
   32.8472   36.2238   63.9548 C   0  0  0  0  0  0  0  0  0  0  0  0
   31.5332   35.9496   64.3676 C   0  0  0  0  0  0  0  0  0  0  0  0
   30.8176   35.6059   63.2726 C   0  0  0  0  0  0  0  0  0  0  0  0
   31.6447   35.6500   62.2070 N   0  0  0  0  0  0  0  0  0  0  0  0
   31.2796   35.3458   60.8212 C   0  0  0  0  0  0  0  0  0  0  0  0
   31.8549   36.3973   59.9078 C   0  0  0  0  0  0  0  0  0  0  0  0
   32.4859   36.0242   58.7357 C   0  0  0  0  0  0  0  0  0  0  0  0
   33.0141   36.9883   57.8978 C   0  0  0  0  0  0  0  0  0  0  0  0
   32.9159   38.3265   58.2349 C   0  0  0  0  0  0  0  0  0  0  0  0
   33.5862   39.5373   57.1868 Cl  0  0  0  0  0  0  0  0  0  0  0  0
   32.2785   38.6996   59.4048 C   0  0  0  0  0  0  0  0  0  0  0  0
   31.7511   37.7347   60.2420 C   0  0  0  0  0  0  0  0  0  0  0  0
   32.9116   36.0431   62.6567 N   0  0  0  0  0  0  0  0  0  0  0  0
   34.7805   36.7887   64.4042 H   0  0  0  0  0  0  0  0  0  0  0  0
   33.7582   36.7290   65.7362 H   0  0  0  0  0  0  0  0  0  0  0  0
   31.1593   36.0080   65.3790 H   0  0  0  0  0  0  0  0  0  0  0  0
   29.7709   35.3405   63.2545 H   0  0  0  0  0  0  0  0  0  0  0  0
   30.1939   35.3358   60.7253 H   0  0  0  0  0  0  0  0  0  0  0  0
   31.6776   34.3689   60.5466 H   0  0  0  0  0  0  0  0  0  0  0  0
   32.5664   34.9793   58.4748 H   0  0  0  0  0  0  0  0  0  0  0  0
   33.5074   36.6966   56.9823 H   0  0  0  0  0  0  0  0  0  0  0  0
   32.1973   39.7444   59.6661 H   0  0  0  0  0  0  0  0  0  0  0  0
   31.2580   38.0256   61.1578 H   0  0  0  0  0  0  0  0  0  0  0  0
  1  2  1  0  0  0  0
  1 15  1  0  0  0  0
  1 16  1  0  0  0  0
  2 14  2  0  0  0  0
  2  3  1  0  0  0  0
  3  4  2  0  0  0  0
  3 17  1  0  0  0  0
  4  5  1  0  0  0  0
  4 18  1  0  0  0  0
  5  6  1  0  0  0  0
  5 14  1  0  0  0  0
  6  7  1  0  0  0  0
  6 19  1  0  0  0  0
  6 20  1  0  0  0  0
  7 13  2  0  0  0  0
  7  8  1  0  0  0  0
  8  9  2  0  0  0  0
  8 21  1  0  0  0  0
  9 10  1  0  0  0  0
  9 22  1  0  0  0  0
 10 11  1  0  0  0  0
 10 12  2  0  0  0  0
 12 13  1  0  0  0  0
 12 23  1  0  0  0  0
 13 24  1  0  0  0  0
M  END
$$$$
