ZINC000000032121      none
 OpenBabel11202420153D

 36 39  0  0  0  0  0  0  0  0999 V2000
   30.7350   39.2819   64.6827 C   0  0  0  0  0  0  0  0  0  0  0  0
   31.0468   38.3057   63.5778 C   0  0  0  0  0  0  0  0  0  0  0  0
   30.3450   38.3667   62.3868 C   0  0  0  0  0  0  0  0  0  0  0  0
   30.6256   37.4764   61.3710 C   0  0  0  0  0  0  0  0  0  0  0  0
   31.6199   36.5120   61.5471 C   0  0  0  0  0  0  0  0  0  0  0  0
   31.9254   35.5551   60.4639 C   0  0  0  0  0  0  0  0  0  0  0  0
   31.8410   34.2496   60.5348 N   0  0  0  0  0  0  0  0  0  0  0  0
   32.1845   33.7232   59.4144 N   0  0  0  0  0  0  0  0  0  0  0  0
   32.5089   34.6638   58.5622 C   0  0  0  0  0  0  0  0  0  0  0  0
   33.0647   34.9911   56.9151 S   0  0  0  0  0  0  0  0  0  0  0  0
   33.0781   36.7523   57.1243 C   0  0  0  0  0  0  0  0  0  0  0  0
   33.4244   37.6987   56.2033 C   0  0  0  0  0  0  0  0  0  0  0  0
   33.8315   37.3082   54.9079 C   0  0  0  0  0  0  0  0  0  0  0  0
   35.0561   37.5710   54.3255 C   0  0  0  0  0  0  0  0  0  0  0  0
   35.0193   37.0001   53.0444 C   0  0  0  0  0  0  0  0  0  0  0  0
   33.8050   36.4252   52.8971 C   0  0  0  0  0  0  0  0  0  0  0  0
   33.3276   35.6918   51.6703 C   0  0  0  0  0  0  0  0  0  0  0  0
   33.0954   36.6067   54.0205 O   0  0  0  0  0  0  0  0  0  0  0  0
   32.6510   36.9589   58.4548 C   0  0  0  0  0  0  0  0  0  0  0  0
   32.5500   38.0785   58.9226 O   0  0  0  0  0  0  0  0  0  0  0  0
   32.3632   35.8741   59.1776 N   0  0  0  0  0  0  0  0  0  0  0  0
   32.3200   36.4525   62.7536 C   0  0  0  0  0  0  0  0  0  0  0  0
   32.0329   37.3523   63.7591 C   0  0  0  0  0  0  0  0  0  0  0  0
   29.9609   38.8658   65.3276 H   0  0  0  0  0  0  0  0  0  0  0  0
   31.6352   39.4670   65.2687 H   0  0  0  0  0  0  0  0  0  0  0  0
   30.3834   40.2191   64.2511 H   0  0  0  0  0  0  0  0  0  0  0  0
   29.5764   39.1131   62.2518 H   0  0  0  0  0  0  0  0  0  0  0  0
   30.0778   37.5256   60.4416 H   0  0  0  0  0  0  0  0  0  0  0  0
   33.3874   38.7458   56.4651 H   0  0  0  0  0  0  0  0  0  0  0  0
   35.8800   38.1106   54.7688 H   0  0  0  0  0  0  0  0  0  0  0  0
   35.8131   37.0173   52.3123 H   0  0  0  0  0  0  0  0  0  0  0  0
   33.5826   34.6355   51.7562 H   0  0  0  0  0  0  0  0  0  0  0  0
   32.2465   35.7984   51.5810 H   0  0  0  0  0  0  0  0  0  0  0  0
   33.8084   36.1108   50.7864 H   0  0  0  0  0  0  0  0  0  0  0  0
   33.0872   35.7062   62.8980 H   0  0  0  0  0  0  0  0  0  0  0  0
   32.5765   37.3100   64.6914 H   0  0  0  0  0  0  0  0  0  0  0  0
  1  2  1  0  0  0  0
  1 24  1  0  0  0  0
  1 25  1  0  0  0  0
  1 26  1  0  0  0  0
  2 23  2  0  0  0  0
  2  3  1  0  0  0  0
  3  4  2  0  0  0  0
  3 27  1  0  0  0  0
  4  5  1  0  0  0  0
  4 28  1  0  0  0  0
  5  6  1  0  0  0  0
  5 22  2  0  0  0  0
  6 21  1  0  0  0  0
  6  7  2  0  0  0  0
  7  8  1  0  0  0  0
  8  9  2  0  0  0  0
  9 21  1  0  0  0  0
  9 10  1  0  0  0  0
 10 11  1  0  0  0  0
 11 12  2  0  0  0  0
 11 19  1  0  0  0  0
 12 13  1  0  0  0  0
 12 29  1  0  0  0  0
 13 18  1  0  0  0  0
 13 14  2  0  0  0  0
 14 15  1  0  0  0  0
 14 30  1  0  0  0  0
 15 16  2  0  0  0  0
 15 31  1  0  0  0  0
 16 17  1  0  0  0  0
 16 18  1  0  0  0  0
 17 32  1  0  0  0  0
 17 33  1  0  0  0  0
 17 34  1  0  0  0  0
 19 20  2  0  0  0  0
 19 21  1  0  0  0  0
 22 23  1  0  0  0  0
 22 35  1  0  0  0  0
 23 36  1  0  0  0  0
M  END
$$$$
