ZINC000000049137      none
 OpenBabel11202420153D

 31 32  0  0  0  0  0  0  0  0999 V2000
   32.8056   34.7116   57.6261 C   0  0  0  0  0  0  0  0  0  0  0  0
   32.8684   36.1053   57.9357 O   0  0  0  0  0  0  0  0  0  0  0  0
   32.2267   36.5162   59.0567 C   0  0  0  0  0  0  0  0  0  0  0  0
   31.5451   35.6041   59.8526 C   0  0  0  0  0  0  0  0  0  0  0  0
   30.9015   36.0758   60.9936 C   0  0  0  0  0  0  0  0  0  0  0  0
   30.2081   35.2059   61.8204 N   0  0  0  0  0  0  0  0  0  0  0  0
   29.4414   35.7813   63.1708 S   0  0  0  0  0  0  0  0  0  0  0  0
   28.9626   34.6440   63.8755 O   0  0  0  0  0  0  0  0  0  0  0  0
   28.5967   36.8370   62.7336 O   0  0  0  0  0  0  0  0  0  0  0  0
   30.6711   36.5193   64.1943 C   0  0  0  0  0  0  0  0  0  0  0  0
   31.3284   35.7565   65.1423 C   0  0  0  0  0  0  0  0  0  0  0  0
   32.2931   36.3316   65.9458 C   0  0  0  0  0  0  0  0  0  0  0  0
   32.6032   37.6779   65.8010 C   0  0  0  0  0  0  0  0  0  0  0  0
   33.5779   38.2629   66.6124 N   0  0  0  0  0  0  0  0  0  0  0  0
   31.9373   38.4424   64.8514 C   0  0  0  0  0  0  0  0  0  0  0  0
   30.9774   37.8598   64.0475 C   0  0  0  0  0  0  0  0  0  0  0  0
   30.9577   37.3758   61.2758 N   0  0  0  0  0  0  0  0  0  0  0  0
   31.6196   38.2075   60.4977 C   0  0  0  0  0  0  0  0  0  0  0  0
   32.2406   37.7984   59.4100 N   0  0  0  0  0  0  0  0  0  0  0  0
   33.3585   34.5183   56.7070 H   0  0  0  0  0  0  0  0  0  0  0  0
   33.2451   34.1380   58.4421 H   0  0  0  0  0  0  0  0  0  0  0  0
   31.7650   34.4155   57.4931 H   0  0  0  0  0  0  0  0  0  0  0  0
   31.5155   34.5562   59.5931 H   0  0  0  0  0  0  0  0  0  0  0  0
   30.1718   34.2601   61.6081 H   0  0  0  0  0  0  0  0  0  0  0  0
   31.0865   34.7098   65.2546 H   0  0  0  0  0  0  0  0  0  0  0  0
   32.8057   35.7355   66.6862 H   0  0  0  0  0  0  0  0  0  0  0  0
   34.0394   37.7290   67.2779 H   0  0  0  0  0  0  0  0  0  0  0  0
   33.7964   39.2022   66.5076 H   0  0  0  0  0  0  0  0  0  0  0  0
   32.1729   39.4905   64.7393 H   0  0  0  0  0  0  0  0  0  0  0  0
   30.4622   38.4526   63.3061 H   0  0  0  0  0  0  0  0  0  0  0  0
   31.6500   39.2558   60.7562 H   0  0  0  0  0  0  0  0  0  0  0  0
  1  2  1  0  0  0  0
  1 20  1  0  0  0  0
  1 21  1  0  0  0  0
  1 22  1  0  0  0  0
  2  3  1  0  0  0  0
  3 19  2  0  0  0  0
  3  4  1  0  0  0  0
  4  5  2  0  0  0  0
  4 23  1  0  0  0  0
  5  6  1  0  0  0  0
  5 17  1  0  0  0  0
  6  7  1  0  0  0  0
  6 24  1  0  0  0  0
  7  8  2  0  0  0  0
  7  9  2  0  0  0  0
  7 10  1  0  0  0  0
 10 16  2  0  0  0  0
 10 11  1  0  0  0  0
 11 12  2  0  0  0  0
 11 25  1  0  0  0  0
 12 13  1  0  0  0  0
 12 26  1  0  0  0  0
 13 14  1  0  0  0  0
 13 15  2  0  0  0  0
 14 27  1  0  0  0  0
 14 28  1  0  0  0  0
 15 16  1  0  0  0  0
 15 29  1  0  0  0  0
 16 30  1  0  0  0  0
 17 18  2  0  0  0  0
 18 19  1  0  0  0  0
 18 31  1  0  0  0  0
M  END
$$$$
