ZINC000000028637      none
 OpenBabel11202420163D

 43 45  0  0  0  0  0  0  0  0999 V2000
   32.1443   33.5877   57.7511 C   0  0  0  0  0  0  0  0  0  0  0  0
   32.3438   35.0709   57.9279 C   0  0  0  0  0  0  0  0  0  0  0  0
   33.0044   35.7819   56.9849 C   0  0  0  0  0  0  0  0  0  0  0  0
   33.0939   37.2376   57.0956 C   0  0  0  0  0  0  0  0  0  0  0  0
   33.7222   38.0732   56.2150 C   0  0  0  0  0  0  0  0  0  0  0  0
   33.5595   39.3795   56.7109 C   0  0  0  0  0  0  0  0  0  0  0  0
   32.8502   39.2847   57.8544 C   0  0  0  0  0  0  0  0  0  0  0  0
   32.5659   37.9914   58.0812 O   0  0  0  0  0  0  0  0  0  0  0  0
   31.8400   35.7207   59.0810 C   0  0  0  0  0  0  0  0  0  0  0  0
   32.2498   35.3591   60.2638 N   0  0  0  0  0  0  0  0  0  0  0  0
   31.6775   35.9300   61.4081 N   0  0  0  0  0  0  0  0  0  0  0  0
   31.7448   37.3804   61.6424 C   0  0  0  0  0  0  0  0  0  0  0  0
   32.2862   37.6208   63.0557 C   0  0  0  0  0  0  0  0  0  0  0  0
   31.4717   36.8725   64.0224 N   0  0  0  0  0  0  0  0  0  0  0  0
   31.8302   37.1936   65.3336 C   0  0  0  0  0  0  0  0  0  0  0  0
   31.7232   38.5033   65.7838 C   0  0  0  0  0  0  0  0  0  0  0  0
   32.0789   38.8173   67.0808 C   0  0  0  0  0  0  0  0  0  0  0  0
   32.5412   37.8295   67.9310 C   0  0  0  0  0  0  0  0  0  0  0  0
   32.6489   36.5246   67.4861 C   0  0  0  0  0  0  0  0  0  0  0  0
   32.2949   36.2038   66.1904 C   0  0  0  0  0  0  0  0  0  0  0  0
   31.5651   35.4250   63.7905 C   0  0  0  0  0  0  0  0  0  0  0  0
   30.9942   35.0947   62.4074 C   0  0  0  0  0  0  0  0  0  0  0  0
   31.2090   33.4075   57.2209 H   0  0  0  0  0  0  0  0  0  0  0  0
   32.9733   33.1755   57.1758 H   0  0  0  0  0  0  0  0  0  0  0  0
   32.1060   33.1071   58.7287 H   0  0  0  0  0  0  0  0  0  0  0  0
   33.4655   35.2744   56.1504 H   0  0  0  0  0  0  0  0  0  0  0  0
   34.2424   37.7861   55.3131 H   0  0  0  0  0  0  0  0  0  0  0  0
   33.9329   40.2875   56.2610 H   0  0  0  0  0  0  0  0  0  0  0  0
   32.5555   40.1128   58.4819 H   0  0  0  0  0  0  0  0  0  0  0  0
   31.1163   36.5159   58.9799 H   0  0  0  0  0  0  0  0  0  0  0  0
   30.7479   37.8123   61.5538 H   0  0  0  0  0  0  0  0  0  0  0  0
   32.4115   37.8389   60.9120 H   0  0  0  0  0  0  0  0  0  0  0  0
   32.2393   38.6848   63.2871 H   0  0  0  0  0  0  0  0  0  0  0  0
   33.3205   37.2815   63.1119 H   0  0  0  0  0  0  0  0  0  0  0  0
   31.3625   39.2752   65.1202 H   0  0  0  0  0  0  0  0  0  0  0  0
   31.9963   39.8355   67.4313 H   0  0  0  0  0  0  0  0  0  0  0  0
   32.8230   38.0786   68.9434 H   0  0  0  0  0  0  0  0  0  0  0  0
   33.0107   35.7556   68.1526 H   0  0  0  0  0  0  0  0  0  0  0  0
   32.3790   35.1843   65.8437 H   0  0  0  0  0  0  0  0  0  0  0  0
   32.6095   35.1160   63.8362 H   0  0  0  0  0  0  0  0  0  0  0  0
   30.9953   34.8965   64.5549 H   0  0  0  0  0  0  0  0  0  0  0  0
   29.9251   35.3067   62.3924 H   0  0  0  0  0  0  0  0  0  0  0  0
   31.1647   34.0417   62.1827 H   0  0  0  0  0  0  0  0  0  0  0  0
  1  2  1  0  0  0  0
  1 23  1  0  0  0  0
  1 24  1  0  0  0  0
  1 25  1  0  0  0  0
  2  3  2  0  0  0  0
  2  9  1  0  0  0  0
  3  4  1  0  0  0  0
  3 26  1  0  0  0  0
  4  8  1  0  0  0  0
  4  5  2  0  0  0  0
  5  6  1  0  0  0  0
  5 27  1  0  0  0  0
  6  7  2  0  0  0  0
  6 28  1  0  0  0  0
  7  8  1  0  0  0  0
  7 29  1  0  0  0  0
  9 10  2  0  0  0  0
  9 30  1  0  0  0  0
 10 11  1  0  0  0  0
 11 22  1  0  0  0  0
 11 12  1  0  0  0  0
 12 13  1  0  0  0  0
 12 31  1  0  0  0  0
 12 32  1  0  0  0  0
 13 14  1  0  0  0  0
 13 33  1  0  0  0  0
 13 34  1  0  0  0  0
 14 15  1  0  0  0  0
 14 21  1  0  0  0  0
 15 20  2  0  0  0  0
 15 16  1  0  0  0  0
 16 17  2  0  0  0  0
 16 35  1  0  0  0  0
 17 18  1  0  0  0  0
 17 36  1  0  0  0  0
 18 19  2  0  0  0  0
 18 37  1  0  0  0  0
 19 20  1  0  0  0  0
 19 38  1  0  0  0  0
 20 39  1  0  0  0  0
 21 22  1  0  0  0  0
 21 40  1  0  0  0  0
 21 41  1  0  0  0  0
 22 42  1  0  0  0  0
 22 43  1  0  0  0  0
M  END
$$$$
