ZINC000000033627      none
 OpenBabel11202420153D

 30 32  0  0  0  0  0  0  0  0999 V2000
   29.8404   33.7900   64.8495 C   0  0  0  0  0  0  0  0  0  0  0  0
   30.4146   34.0386   63.4786 C   0  0  0  0  0  0  0  0  0  0  0  0
   30.5995   35.2632   63.0865 N   0  0  0  0  0  0  0  0  0  0  0  0
   31.1120   35.5566   61.8656 C   0  0  0  0  0  0  0  0  0  0  0  0
   31.4422   34.5118   61.0285 C   0  0  0  0  0  0  0  0  0  0  0  0
   32.0809   35.1507   59.5186 S   0  0  0  0  0  0  0  0  0  0  0  0
   31.8691   36.7973   60.0956 C   0  0  0  0  0  0  0  0  0  0  0  0
   32.2614   38.2075   59.2077 S   0  0  0  0  0  0  0  0  0  0  0  0
   31.3601   36.7859   61.3195 N   0  0  0  0  0  0  0  0  0  0  0  0
   31.0785   38.0247   62.0491 C   0  0  0  0  0  0  0  0  0  0  0  0
   31.5759   37.8973   63.4660 C   0  0  0  0  0  0  0  0  0  0  0  0
   30.7834   38.3187   64.5173 C   0  0  0  0  0  0  0  0  0  0  0  0
   31.2377   38.1974   65.8172 C   0  0  0  0  0  0  0  0  0  0  0  0
   32.4889   37.6642   66.0651 C   0  0  0  0  0  0  0  0  0  0  0  0
   33.2835   37.2477   65.0135 C   0  0  0  0  0  0  0  0  0  0  0  0
   32.8269   37.3641   63.7139 C   0  0  0  0  0  0  0  0  0  0  0  0
   31.2380   33.1837   61.4638 C   0  0  0  0  0  0  0  0  0  0  0  0
   31.5216   32.2415   60.7420 O   0  0  0  0  0  0  0  0  0  0  0  0
   30.7228   32.9777   62.6938 N   0  0  0  0  0  0  0  0  0  0  0  0
   30.5732   32.0746   63.0146 H   0  0  0  0  0  0  0  0  0  0  0  0
   30.6509   33.7139   65.5745 H   0  0  0  0  0  0  0  0  0  0  0  0
   29.1841   34.6159   65.1238 H   0  0  0  0  0  0  0  0  0  0  0  0
   29.2712   32.8606   64.8420 H   0  0  0  0  0  0  0  0  0  0  0  0
   31.5839   38.8573   61.5601 H   0  0  0  0  0  0  0  0  0  0  0  0
   30.0037   38.2057   62.0563 H   0  0  0  0  0  0  0  0  0  0  0  0
   29.8078   38.7393   64.3233 H   0  0  0  0  0  0  0  0  0  0  0  0
   30.6171   38.5231   66.6388 H   0  0  0  0  0  0  0  0  0  0  0  0
   32.8456   37.5735   67.0804 H   0  0  0  0  0  0  0  0  0  0  0  0
   34.2610   36.8315   65.2072 H   0  0  0  0  0  0  0  0  0  0  0  0
   33.4480   37.0391   62.8922 H   0  0  0  0  0  0  0  0  0  0  0  0
  1  2  1  0  0  0  0
  1 21  1  0  0  0  0
  1 22  1  0  0  0  0
  1 23  1  0  0  0  0
  2 19  1  0  0  0  0
  2  3  2  0  0  0  0
  3  4  1  0  0  0  0
  4  9  1  0  0  0  0
  4  5  2  0  0  0  0
  5  6  1  0  0  0  0
  5 17  1  0  0  0  0
  6  7  1  0  0  0  0
  7  8  2  0  0  0  0
  7  9  1  0  0  0  0
  9 10  1  0  0  0  0
 10 11  1  0  0  0  0
 10 24  1  0  0  0  0
 10 25  1  0  0  0  0
 11 16  2  0  0  0  0
 11 12  1  0  0  0  0
 12 13  2  0  0  0  0
 12 26  1  0  0  0  0
 13 14  1  0  0  0  0
 13 27  1  0  0  0  0
 14 15  2  0  0  0  0
 14 28  1  0  0  0  0
 15 16  1  0  0  0  0
 15 29  1  0  0  0  0
 16 30  1  0  0  0  0
 17 18  2  0  0  0  0
 17 19  1  0  0  0  0
 19 20  1  0  0  0  0
M  END
$$$$
