ZINC000000004623      none
 OpenBabel11202420153D

 33 34  0  0  0  0  0  0  0  0999 V2000
   28.4897   34.4929   65.5800 N   0  0  0  0  0  0  0  0  0  0  0  0
   29.4797   35.3828   65.3698 C   0  0  0  0  0  0  0  0  0  0  0  0
   29.4466   36.4663   65.9138 O   0  0  0  0  0  0  0  0  0  0  0  0
   30.6275   35.0320   64.4586 C   0  0  0  0  0  0  0  0  0  0  0  0
   30.2954   35.4487   63.0490 C   0  0  0  0  0  0  0  0  0  0  0  0
   29.0870   36.0566   62.7767 C   0  0  0  0  0  0  0  0  0  0  0  0
   28.7715   36.4445   61.4838 C   0  0  0  0  0  0  0  0  0  0  0  0
   29.6610   36.2272   60.4549 C   0  0  0  0  0  0  0  0  0  0  0  0
   30.8896   35.6121   60.7135 C   0  0  0  0  0  0  0  0  0  0  0  0
   31.8460   35.3763   59.6180 C   0  0  0  0  0  0  0  0  0  0  0  0
   32.2006   34.2436   59.3536 O   0  0  0  0  0  0  0  0  0  0  0  0
   32.3744   36.5163   58.8406 C   0  0  0  0  0  0  0  0  0  0  0  0
   32.7401   36.3438   57.5035 C   0  0  0  0  0  0  0  0  0  0  0  0
   33.2285   37.4125   56.7822 C   0  0  0  0  0  0  0  0  0  0  0  0
   33.3663   38.6528   57.3836 C   0  0  0  0  0  0  0  0  0  0  0  0
   33.9889   39.9917   56.4707 Cl  0  0  0  0  0  0  0  0  0  0  0  0
   33.0100   38.8291   58.7107 C   0  0  0  0  0  0  0  0  0  0  0  0
   32.5158   37.7694   59.4414 C   0  0  0  0  0  0  0  0  0  0  0  0
   31.2087   35.2256   62.0263 C   0  0  0  0  0  0  0  0  0  0  0  0
   32.4276   34.6199   62.2987 N   0  0  0  0  0  0  0  0  0  0  0  0
   28.5161   33.6263   65.1449 H   0  0  0  0  0  0  0  0  0  0  0  0
   27.7509   34.7187   66.1666 H   0  0  0  0  0  0  0  0  0  0  0  0
   31.5263   35.5527   64.7893 H   0  0  0  0  0  0  0  0  0  0  0  0
   30.7994   33.9560   64.4885 H   0  0  0  0  0  0  0  0  0  0  0  0
   28.3824   36.2317   63.5761 H   0  0  0  0  0  0  0  0  0  0  0  0
   27.8231   36.9202   61.2822 H   0  0  0  0  0  0  0  0  0  0  0  0
   29.4098   36.5318   59.4496 H   0  0  0  0  0  0  0  0  0  0  0  0
   32.6372   35.3763   57.0348 H   0  0  0  0  0  0  0  0  0  0  0  0
   33.5077   37.2813   55.7471 H   0  0  0  0  0  0  0  0  0  0  0  0
   33.1198   39.7984   59.1740 H   0  0  0  0  0  0  0  0  0  0  0  0
   32.2390   37.9079   60.4760 H   0  0  0  0  0  0  0  0  0  0  0  0
   32.6135   34.2831   63.1891 H   0  0  0  0  0  0  0  0  0  0  0  0
   33.0934   34.5333   61.5987 H   0  0  0  0  0  0  0  0  0  0  0  0
  1  2  1  0  0  0  0
  1 21  1  0  0  0  0
  1 22  1  0  0  0  0
  2  3  2  0  0  0  0
  2  4  1  0  0  0  0
  4  5  1  0  0  0  0
  4 23  1  0  0  0  0
  4 24  1  0  0  0  0
  5 19  2  0  0  0  0
  5  6  1  0  0  0  0
  6  7  2  0  0  0  0
  6 25  1  0  0  0  0
  7  8  1  0  0  0  0
  7 26  1  0  0  0  0
  8  9  2  0  0  0  0
  8 27  1  0  0  0  0
  9 10  1  0  0  0  0
  9 19  1  0  0  0  0
 10 11  2  0  0  0  0
 10 12  1  0  0  0  0
 12 18  2  0  0  0  0
 12 13  1  0  0  0  0
 13 14  2  0  0  0  0
 13 28  1  0  0  0  0
 14 15  1  0  0  0  0
 14 29  1  0  0  0  0
 15 16  1  0  0  0  0
 15 17  2  0  0  0  0
 17 18  1  0  0  0  0
 17 30  1  0  0  0  0
 18 31  1  0  0  0  0
 19 20  1  0  0  0  0
 20 32  1  0  0  0  0
 20 33  1  0  0  0  0
M  END
$$$$
