ZINC000000033958      none
 OpenBabel11202420153D

 23 23  0  0  0  0  0  0  0  0999 V2000
   31.7785   37.4411   61.1732 C   0  0  0  0  0  0  0  0  0  0  0  0
   32.2892   38.5739   60.4676 O   0  0  0  0  0  0  0  0  0  0  0  0
   32.6767   38.3756   59.1796 C   0  0  0  0  0  0  0  0  0  0  0  0
   32.5659   37.1160   58.6098 C   0  0  0  0  0  0  0  0  0  0  0  0
   32.9573   36.9099   57.3031 C   0  0  0  0  0  0  0  0  0  0  0  0
   33.4665   37.9700   56.5517 C   0  0  0  0  0  0  0  0  0  0  0  0
   33.8871   37.7507   55.1522 C   0  0  0  0  0  0  0  0  0  0  0  0
   33.2902   36.8214   54.4184 C   0  0  0  0  0  0  0  0  0  0  0  0
   33.7116   36.6017   53.0162 N   0  0  0  0  0  0  0  0  0  0  0  0
   34.1557   37.5278   52.3616 O   0  0  0  0  0  0  0  0  0  0  0  0
   33.6142   35.4948   52.5175 O   0  0  0  0  0  0  0  0  0  0  0  0
   33.5780   39.2375   57.1249 C   0  0  0  0  0  0  0  0  0  0  0  0
   33.1836   39.4378   58.4351 C   0  0  0  0  0  0  0  0  0  0  0  0
   33.2913   40.6717   58.9967 O   0  0  0  0  0  0  0  0  0  0  0  0
   30.8973   37.0589   60.6578 H   0  0  0  0  0  0  0  0  0  0  0  0
   32.5415   36.6637   61.2133 H   0  0  0  0  0  0  0  0  0  0  0  0
   31.5071   37.7364   62.1867 H   0  0  0  0  0  0  0  0  0  0  0  0
   32.1683   36.2957   59.1889 H   0  0  0  0  0  0  0  0  0  0  0  0
   32.8701   35.9281   56.8618 H   0  0  0  0  0  0  0  0  0  0  0  0
   34.6807   38.3472   54.7270 H   0  0  0  0  0  0  0  0  0  0  0  0
   32.4967   36.2249   54.8435 H   0  0  0  0  0  0  0  0  0  0  0  0
   33.9712   40.0604   56.5462 H   0  0  0  0  0  0  0  0  0  0  0  0
   32.9916   40.7134   59.9152 H   0  0  0  0  0  0  0  0  0  0  0  0
  1  2  1  0  0  0  0
  1 15  1  0  0  0  0
  1 16  1  0  0  0  0
  1 17  1  0  0  0  0
  2  3  1  0  0  0  0
  3 13  2  0  0  0  0
  3  4  1  0  0  0  0
  4  5  2  0  0  0  0
  4 18  1  0  0  0  0
  5  6  1  0  0  0  0
  5 19  1  0  0  0  0
  6  7  1  0  0  0  0
  6 12  2  0  0  0  0
  7  8  2  0  0  0  0
  7 20  1  0  0  0  0
  8  9  1  0  0  0  0
  8 21  1  0  0  0  0
  9 10  2  0  0  0  0
  9 11  2  0  0  0  0
 12 13  1  0  0  0  0
 12 22  1  0  0  0  0
 13 14  1  0  0  0  0
 14 23  1  0  0  0  0
M  END
$$$$
