ZINC000000052513      none
 OpenBabel11202420153D

 36 39  0  0  0  0  0  0  0  0999 V2000
   35.1770   38.6837   52.7211 C   0  0  0  0  0  0  0  0  0  0  0  0
   35.0676   39.6031   53.7482 C   0  0  0  0  0  0  0  0  0  0  0  0
   34.5571   39.2164   54.9718 C   0  0  0  0  0  0  0  0  0  0  0  0
   34.1533   37.9021   55.1700 C   0  0  0  0  0  0  0  0  0  0  0  0
   33.6361   37.5076   56.4060 N   0  0  0  0  0  0  0  0  0  0  0  0
   33.3582   36.0646   56.4245 C   0  0  0  0  0  0  0  0  0  0  0  0
   32.8695   35.6596   57.8171 C   0  0  0  0  0  0  0  0  0  0  0  0
   31.6637   36.4294   58.1533 N   0  0  0  0  0  0  0  0  0  0  0  0
   31.1489   36.0368   59.3836 C   0  0  0  0  0  0  0  0  0  0  0  0
   29.9903   36.6590   59.8838 C   0  0  0  0  0  0  0  0  0  0  0  0
   29.4751   36.2778   61.0835 C   0  0  0  0  0  0  0  0  0  0  0  0
   30.1222   35.2671   61.8169 C   0  0  0  0  0  0  0  0  0  0  0  0
   29.8903   34.6847   62.9852 N   0  0  0  0  0  0  0  0  0  0  0  0
   30.7885   33.7958   63.2235 N   0  0  0  0  0  0  0  0  0  0  0  0
   31.6427   33.7370   62.2582 N   0  0  0  0  0  0  0  0  0  0  0  0
   31.2501   34.6857   61.3056 N   0  0  0  0  0  0  0  0  0  0  0  0
   31.7529   35.0919   60.0697 N   0  0  0  0  0  0  0  0  0  0  0  0
   31.9414   37.8724   58.1349 C   0  0  0  0  0  0  0  0  0  0  0  0
   32.4301   38.2774   56.7423 C   0  0  0  0  0  0  0  0  0  0  0  0
   34.2645   36.9811   54.1360 C   0  0  0  0  0  0  0  0  0  0  0  0
   34.7758   37.3746   52.9150 C   0  0  0  0  0  0  0  0  0  0  0  0
   35.5807   38.9877   51.7666 H   0  0  0  0  0  0  0  0  0  0  0  0
   35.3821   40.6246   53.5935 H   0  0  0  0  0  0  0  0  0  0  0  0
   34.4724   39.9348   55.7737 H   0  0  0  0  0  0  0  0  0  0  0  0
   32.5893   35.8329   55.6875 H   0  0  0  0  0  0  0  0  0  0  0  0
   34.2690   35.5159   56.1848 H   0  0  0  0  0  0  0  0  0  0  0  0
   33.6490   35.8662   58.5504 H   0  0  0  0  0  0  0  0  0  0  0  0
   32.6354   34.5951   57.8253 H   0  0  0  0  0  0  0  0  0  0  0  0
   29.5065   37.4369   59.3119 H   0  0  0  0  0  0  0  0  0  0  0  0
   28.5835   36.7488   61.4702 H   0  0  0  0  0  0  0  0  0  0  0  0
   32.7104   38.1042   58.8719 H   0  0  0  0  0  0  0  0  0  0  0  0
   31.0308   38.4215   58.3746 H   0  0  0  0  0  0  0  0  0  0  0  0
   32.6644   39.3420   56.7343 H   0  0  0  0  0  0  0  0  0  0  0  0
   31.6507   38.0709   56.0089 H   0  0  0  0  0  0  0  0  0  0  0  0
   33.9516   35.9585   54.2870 H   0  0  0  0  0  0  0  0  0  0  0  0
   34.8629   36.6591   52.1108 H   0  0  0  0  0  0  0  0  0  0  0  0
  1 21  2  0  0  0  0
  1  2  1  0  0  0  0
  1 22  1  0  0  0  0
  2  3  2  0  0  0  0
  2 23  1  0  0  0  0
  3  4  1  0  0  0  0
  3 24  1  0  0  0  0
  4  5  1  0  0  0  0
  4 20  2  0  0  0  0
  5 19  1  0  0  0  0
  5  6  1  0  0  0  0
  6  7  1  0  0  0  0
  6 25  1  0  0  0  0
  6 26  1  0  0  0  0
  7  8  1  0  0  0  0
  7 27  1  0  0  0  0
  7 28  1  0  0  0  0
  8  9  1  0  0  0  0
  8 18  1  0  0  0  0
  9 17  2  0  0  0  0
  9 10  1  0  0  0  0
 10 11  2  0  0  0  0
 10 29  1  0  0  0  0
 11 12  1  0  0  0  0
 11 30  1  0  0  0  0
 12 16  1  0  0  0  0
 12 13  2  0  0  0  0
 13 14  1  0  0  0  0
 14 15  2  0  0  0  0
 15 16  1  0  0  0  0
 16 17  1  0  0  0  0
 18 19  1  0  0  0  0
 18 31  1  0  0  0  0
 18 32  1  0  0  0  0
 19 33  1  0  0  0  0
 19 34  1  0  0  0  0
 20 21  1  0  0  0  0
 20 35  1  0  0  0  0
 21 36  1  0  0  0  0
M  END
$$$$
