ZINC000000045673      none
 OpenBabel11202420153D

 32 33  0  0  0  0  0  0  0  0999 V2000
   33.0561   36.1018   53.9137 C   0  0  0  0  0  0  0  0  0  0  0  0
   33.9092   36.9033   54.7947 N   0  0  0  0  0  0  0  0  0  0  0  0
   35.1944   37.4102   54.3072 C   0  0  0  0  0  0  0  0  0  0  0  0
   33.4981   37.1835   56.0971 C   0  0  0  0  0  0  0  0  0  0  0  0
   33.2559   36.1424   56.9874 C   0  0  0  0  0  0  0  0  0  0  0  0
   32.8545   36.4157   58.2762 C   0  0  0  0  0  0  0  0  0  0  0  0
   32.6802   37.7407   58.6861 C   0  0  0  0  0  0  0  0  0  0  0  0
   32.2447   38.0370   60.0625 C   0  0  0  0  0  0  0  0  0  0  0  0
   32.0225   37.0670   60.8958 N   0  0  0  0  0  0  0  0  0  0  0  0
   31.7120   37.3492   62.2325 N   0  0  0  0  0  0  0  0  0  0  0  0
   31.0641   38.4579   62.6414 C   0  0  0  0  0  0  0  0  0  0  0  0
   30.6565   39.3655   61.9484 O   0  0  0  0  0  0  0  0  0  0  0  0
   30.9517   38.3346   64.1480 C   0  0  0  0  0  0  0  0  0  0  0  0
   31.6112   37.0503   64.4405 N   0  0  0  0  0  0  0  0  0  0  0  0
   32.0169   36.5486   63.2601 C   0  0  0  0  0  0  0  0  0  0  0  0
   32.5986   35.4880   63.1409 O   0  0  0  0  0  0  0  0  0  0  0  0
   32.9193   38.7840   57.7870 C   0  0  0  0  0  0  0  0  0  0  0  0
   33.3255   38.5033   56.5014 C   0  0  0  0  0  0  0  0  0  0  0  0
   32.3816   36.7590   53.3648 H   0  0  0  0  0  0  0  0  0  0  0  0
   33.6783   35.5495   53.2094 H   0  0  0  0  0  0  0  0  0  0  0  0
   32.4738   35.4006   54.5113 H   0  0  0  0  0  0  0  0  0  0  0  0
   35.9760   36.6799   54.5167 H   0  0  0  0  0  0  0  0  0  0  0  0
   35.1340   37.5795   53.2322 H   0  0  0  0  0  0  0  0  0  0  0  0
   35.4292   38.3482   54.8103 H   0  0  0  0  0  0  0  0  0  0  0  0
   33.3867   35.1188   56.6689 H   0  0  0  0  0  0  0  0  0  0  0  0
   32.6703   35.6071   58.9681 H   0  0  0  0  0  0  0  0  0  0  0  0
   32.1104   39.0612   60.3777 H   0  0  0  0  0  0  0  0  0  0  0  0
   31.4745   39.1550   64.6400 H   0  0  0  0  0  0  0  0  0  0  0  0
   29.9058   38.3070   64.4536 H   0  0  0  0  0  0  0  0  0  0  0  0
   31.7268   36.6437   65.3135 H   0  0  0  0  0  0  0  0  0  0  0  0
   32.7852   39.8088   58.1001 H   0  0  0  0  0  0  0  0  0  0  0  0
   33.5102   39.3088   55.8061 H   0  0  0  0  0  0  0  0  0  0  0  0
  1  2  1  0  0  0  0
  1 19  1  0  0  0  0
  1 20  1  0  0  0  0
  1 21  1  0  0  0  0
  2  3  1  0  0  0  0
  2  4  1  0  0  0  0
  3 22  1  0  0  0  0
  3 23  1  0  0  0  0
  3 24  1  0  0  0  0
  4 18  2  0  0  0  0
  4  5  1  0  0  0  0
  5  6  2  0  0  0  0
  5 25  1  0  0  0  0
  6  7  1  0  0  0  0
  6 26  1  0  0  0  0
  7  8  1  0  0  0  0
  7 17  2  0  0  0  0
  8  9  2  0  0  0  0
  8 27  1  0  0  0  0
  9 10  1  0  0  0  0
 10 15  1  0  0  0  0
 10 11  1  0  0  0  0
 11 12  2  0  0  0  0
 11 13  1  0  0  0  0
 13 14  1  0  0  0  0
 13 28  1  0  0  0  0
 13 29  1  0  0  0  0
 14 15  1  0  0  0  0
 14 30  1  0  0  0  0
 15 16  2  0  0  0  0
 17 18  1  0  0  0  0
 17 31  1  0  0  0  0
 18 32  1  0  0  0  0
M  END
$$$$
