ZINC000000000941      none
 OpenBabel11202420153D

 41 42  0  0  0  0  0  0  0  0999 V2000
   29.9916   39.6010   68.4479 C   0  0  0  0  0  0  0  0  0  0  0  0
   29.7264   39.8378   66.9597 C   0  0  0  0  0  0  0  0  0  0  0  0
   30.8797   40.6431   66.3579 C   0  0  0  0  0  0  0  0  0  0  0  0
   28.4689   40.5860   66.7984 C   0  0  0  0  0  0  0  0  0  0  0  0
   27.4986   41.1633   66.6738 N   0  0  0  0  0  0  0  0  0  0  0  0
   29.6163   38.5119   66.2518 C   0  0  0  0  0  0  0  0  0  0  0  0
   29.3767   38.4729   64.8910 C   0  0  0  0  0  0  0  0  0  0  0  0
   29.2766   37.2568   64.2414 C   0  0  0  0  0  0  0  0  0  0  0  0
   29.0154   37.2141   62.7579 C   0  0  0  0  0  0  0  0  0  0  0  0
   30.2909   37.2166   62.0371 N   0  0  0  0  0  0  0  0  0  0  0  0
   31.5214   37.2501   62.5771 C   0  0  0  0  0  0  0  0  0  0  0  0
   32.3933   37.2389   61.6017 N   0  0  0  0  0  0  0  0  0  0  0  0
   31.7602   37.1987   60.4300 C   0  0  0  0  0  0  0  0  0  0  0  0
   30.4708   37.1836   60.6446 N   0  0  0  0  0  0  0  0  0  0  0  0
   29.4106   36.0796   64.9537 C   0  0  0  0  0  0  0  0  0  0  0  0
   29.6541   36.1188   66.3138 C   0  0  0  0  0  0  0  0  0  0  0  0
   29.8053   34.8356   67.0895 C   0  0  0  0  0  0  0  0  0  0  0  0
   29.6466   33.6451   66.1416 C   0  0  0  0  0  0  0  0  0  0  0  0
   31.1910   34.7911   67.7366 C   0  0  0  0  0  0  0  0  0  0  0  0
   28.7726   34.7704   68.1363 C   0  0  0  0  0  0  0  0  0  0  0  0
   27.9755   34.7201   68.9443 N   0  0  0  0  0  0  0  0  0  0  0  0
   29.7556   37.3349   66.9632 C   0  0  0  0  0  0  0  0  0  0  0  0
   30.9226   39.0470   68.5672 H   0  0  0  0  0  0  0  0  0  0  0  0
   30.0711   40.5600   68.9598 H   0  0  0  0  0  0  0  0  0  0  0  0
   29.1698   39.0273   68.8766 H   0  0  0  0  0  0  0  0  0  0  0  0
   30.6908   40.8117   65.2978 H   0  0  0  0  0  0  0  0  0  0  0  0
   30.9593   41.6020   66.8700 H   0  0  0  0  0  0  0  0  0  0  0  0
   31.8108   40.0890   66.4774 H   0  0  0  0  0  0  0  0  0  0  0  0
   29.2679   39.3926   64.3352 H   0  0  0  0  0  0  0  0  0  0  0  0
   28.4317   38.0874   62.4664 H   0  0  0  0  0  0  0  0  0  0  0  0
   28.4612   36.3083   62.5123 H   0  0  0  0  0  0  0  0  0  0  0  0
   31.7504   37.2804   63.6321 H   0  0  0  0  0  0  0  0  0  0  0  0
   32.2353   37.1813   59.4602 H   0  0  0  0  0  0  0  0  0  0  0  0
   29.3280   35.1295   64.4470 H   0  0  0  0  0  0  0  0  0  0  0  0
   30.4114   33.6933   65.3665 H   0  0  0  0  0  0  0  0  0  0  0  0
   29.7560   32.7169   66.7028 H   0  0  0  0  0  0  0  0  0  0  0  0
   28.6594   33.6767   65.6807 H   0  0  0  0  0  0  0  0  0  0  0  0
   31.3041   35.6392   68.4119 H   0  0  0  0  0  0  0  0  0  0  0  0
   31.3004   33.8629   68.2976 H   0  0  0  0  0  0  0  0  0  0  0  0
   31.9557   34.8393   66.9614 H   0  0  0  0  0  0  0  0  0  0  0  0
   29.9431   37.3654   68.0264 H   0  0  0  0  0  0  0  0  0  0  0  0
  1  2  1  0  0  0  0
  1 23  1  0  0  0  0
  1 24  1  0  0  0  0
  1 25  1  0  0  0  0
  2  3  1  0  0  0  0
  2  4  1  0  0  0  0
  2  6  1  0  0  0  0
  3 26  1  0  0  0  0
  3 27  1  0  0  0  0
  3 28  1  0  0  0  0
  4  5  3  0  0  0  0
  6 22  2  0  0  0  0
  6  7  1  0  0  0  0
  7  8  2  0  0  0  0
  7 29  1  0  0  0  0
  8  9  1  0  0  0  0
  8 15  1  0  0  0  0
  9 10  1  0  0  0  0
  9 30  1  0  0  0  0
  9 31  1  0  0  0  0
 10 14  1  0  0  0  0
 10 11  1  0  0  0  0
 11 12  2  0  0  0  0
 11 32  1  0  0  0  0
 12 13  1  0  0  0  0
 13 14  2  0  0  0  0
 13 33  1  0  0  0  0
 15 16  2  0  0  0  0
 15 34  1  0  0  0  0
 16 17  1  0  0  0  0
 16 22  1  0  0  0  0
 17 18  1  0  0  0  0
 17 19  1  0  0  0  0
 17 20  1  0  0  0  0
 18 35  1  0  0  0  0
 18 36  1  0  0  0  0
 18 37  1  0  0  0  0
 19 38  1  0  0  0  0
 19 39  1  0  0  0  0
 19 40  1  0  0  0  0
 20 21  3  0  0  0  0
 22 41  1  0  0  0  0
M  END
$$$$
