ZINC000000034768      none
 OpenBabel11202420153D

 33 34  0  0  0  0  0  0  0  0999 V2000
   32.0150   38.9753   67.6477 C   0  0  0  0  0  0  0  0  0  0  0  0
   31.8661   38.8155   66.2122 O   0  0  0  0  0  0  0  0  0  0  0  0
   30.6150   38.6425   65.7424 C   0  0  0  0  0  0  0  0  0  0  0  0
   29.6741   38.6257   66.5114 O   0  0  0  0  0  0  0  0  0  0  0  0
   30.3882   38.4676   64.2968 C   0  0  0  0  0  0  0  0  0  0  0  0
   29.6340   39.2628   63.5175 N   0  0  0  0  0  0  0  0  0  0  0  0
   29.6543   38.8252   62.3068 N   0  0  0  0  0  0  0  0  0  0  0  0
   30.4536   37.6739   62.2657 N   0  0  0  0  0  0  0  0  0  0  0  0
   30.7316   36.8908   61.1397 C   0  0  0  0  0  0  0  0  0  0  0  0
   30.0384   35.8646   60.7346 N   0  0  0  0  0  0  0  0  0  0  0  0
   30.6535   35.3589   59.5630 O   0  0  0  0  0  0  0  0  0  0  0  0
   31.7886   36.1630   59.2942 N   0  0  0  0  0  0  0  0  0  0  0  0
   31.8557   37.0811   60.2187 C   0  0  0  0  0  0  0  0  0  0  0  0
   32.8272   38.0713   60.3136 N   0  0  0  0  0  0  0  0  0  0  0  0
   30.9041   37.4667   63.5225 C   0  0  0  0  0  0  0  0  0  0  0  0
   31.8029   36.3477   63.9819 C   0  0  0  0  0  0  0  0  0  0  0  0
   31.4943   36.0128   65.4426 C   0  0  0  0  0  0  0  0  0  0  0  0
   31.5623   35.1112   63.1135 C   0  0  0  0  0  0  0  0  0  0  0  0
   33.2643   36.7827   63.8561 C   0  0  0  0  0  0  0  0  0  0  0  0
   31.4553   39.8512   67.9757 H   0  0  0  0  0  0  0  0  0  0  0  0
   31.6322   38.0890   68.1535 H   0  0  0  0  0  0  0  0  0  0  0  0
   33.0693   39.1057   67.8913 H   0  0  0  0  0  0  0  0  0  0  0  0
   32.7953   38.7140   61.0395 H   0  0  0  0  0  0  0  0  0  0  0  0
   33.5368   38.1192   59.6541 H   0  0  0  0  0  0  0  0  0  0  0  0
   30.4564   36.2639   65.6615 H   0  0  0  0  0  0  0  0  0  0  0  0
   31.6542   34.9481   65.6130 H   0  0  0  0  0  0  0  0  0  0  0  0
   32.1524   36.5879   66.0940 H   0  0  0  0  0  0  0  0  0  0  0  0
   31.8872   35.3150   62.0932 H   0  0  0  0  0  0  0  0  0  0  0  0
   32.1284   34.2701   63.5139 H   0  0  0  0  0  0  0  0  0  0  0  0
   30.4999   34.8674   63.1147 H   0  0  0  0  0  0  0  0  0  0  0  0
   33.4686   37.5805   64.5703 H   0  0  0  0  0  0  0  0  0  0  0  0
   33.9154   35.9336   64.0637 H   0  0  0  0  0  0  0  0  0  0  0  0
   33.4499   37.1443   62.8447 H   0  0  0  0  0  0  0  0  0  0  0  0
  1  2  1  0  0  0  0
  1 20  1  0  0  0  0
  1 21  1  0  0  0  0
  1 22  1  0  0  0  0
  2  3  1  0  0  0  0
  3  4  2  0  0  0  0
  3  5  1  0  0  0  0
  5 15  2  0  0  0  0
  5  6  1  0  0  0  0
  6  7  2  0  0  0  0
  7  8  1  0  0  0  0
  8  9  1  0  0  0  0
  8 15  1  0  0  0  0
  9 13  1  0  0  0  0
  9 10  2  0  0  0  0
 10 11  1  0  0  0  0
 11 12  1  0  0  0  0
 12 13  2  0  0  0  0
 13 14  1  0  0  0  0
 14 23  1  0  0  0  0
 14 24  1  0  0  0  0
 15 16  1  0  0  0  0
 16 17  1  0  0  0  0
 16 18  1  0  0  0  0
 16 19  1  0  0  0  0
 17 25  1  0  0  0  0
 17 26  1  0  0  0  0
 17 27  1  0  0  0  0
 18 28  1  0  0  0  0
 18 29  1  0  0  0  0
 18 30  1  0  0  0  0
 19 31  1  0  0  0  0
 19 32  1  0  0  0  0
 19 33  1  0  0  0  0
M  END
$$$$
