ZINC000000034469      none
 OpenBabel11202420153D

 42 44  0  0  0  0  0  0  0  0999 V2000
   30.7531   34.2002   63.5061 C   0  0  0  0  0  0  0  0  0  0  0  0
   31.7535   35.3320   62.5016 S   0  0  0  0  0  0  0  0  0  0  0  0
   31.5421   35.0897   61.1175 O   0  0  0  0  0  0  0  0  0  0  0  0
   33.0664   35.4429   63.0338 O   0  0  0  0  0  0  0  0  0  0  0  0
   31.0796   36.8220   62.7630 N   0  0  0  0  0  0  0  0  0  0  0  0
   30.5021   37.6764   61.7221 C   0  0  0  0  0  0  0  0  0  0  0  0
   30.0155   38.9354   62.4585 C   0  0  0  0  0  0  0  0  0  0  0  0
   30.3674   38.6869   63.9081 C   0  0  0  0  0  0  0  0  0  0  0  0
   30.1695   39.4623   65.0344 C   0  0  0  0  0  0  0  0  0  0  0  0
   30.5916   39.0111   66.2710 C   0  0  0  0  0  0  0  0  0  0  0  0
   30.3450   40.0047   67.7051 S   0  0  0  0  0  0  0  0  0  0  0  0
   29.8819   39.1298   68.7247 O   0  0  0  0  0  0  0  0  0  0  0  0
   29.6236   41.1523   67.2789 O   0  0  0  0  0  0  0  0  0  0  0  0
   31.8341   40.5423   68.1910 N   0  0  0  0  0  0  0  0  0  0  0  0
   32.6625   41.3622   67.2966 C   0  0  0  0  0  0  0  0  0  0  0  0
   34.0431   40.7106   67.1680 C   0  0  0  0  0  0  0  0  0  0  0  0
   34.6377   40.5055   68.5633 C   0  0  0  0  0  0  0  0  0  0  0  0
   33.7354   39.5702   69.3718 C   0  0  0  0  0  0  0  0  0  0  0  0
   32.3514   40.2089   69.5251 C   0  0  0  0  0  0  0  0  0  0  0  0
   31.2029   37.7754   66.3805 C   0  0  0  0  0  0  0  0  0  0  0  0
   31.3974   36.9956   65.2607 C   0  0  0  0  0  0  0  0  0  0  0  0
   30.9789   37.4470   64.0069 C   0  0  0  0  0  0  0  0  0  0  0  0
   29.7154   34.2413   63.1749 H   0  0  0  0  0  0  0  0  0  0  0  0
   31.1305   33.1839   63.3931 H   0  0  0  0  0  0  0  0  0  0  0  0
   30.8121   34.4954   64.5536 H   0  0  0  0  0  0  0  0  0  0  0  0
   31.2606   37.9392   60.9846 H   0  0  0  0  0  0  0  0  0  0  0  0
   29.6652   37.1716   61.2395 H   0  0  0  0  0  0  0  0  0  0  0  0
   30.5354   39.8183   62.0868 H   0  0  0  0  0  0  0  0  0  0  0  0
   28.9377   39.0508   62.3432 H   0  0  0  0  0  0  0  0  0  0  0  0
   29.6878   40.4250   64.9480 H   0  0  0  0  0  0  0  0  0  0  0  0
   32.7687   42.3639   67.7128 H   0  0  0  0  0  0  0  0  0  0  0  0
   32.1930   41.4201   66.3145 H   0  0  0  0  0  0  0  0  0  0  0  0
   34.6981   41.3578   66.5851 H   0  0  0  0  0  0  0  0  0  0  0  0
   33.9452   39.7465   66.6690 H   0  0  0  0  0  0  0  0  0  0  0  0
   35.6304   40.0644   68.4737 H   0  0  0  0  0  0  0  0  0  0  0  0
   34.7121   41.4670   69.0712 H   0  0  0  0  0  0  0  0  0  0  0  0
   33.6406   38.6170   68.8518 H   0  0  0  0  0  0  0  0  0  0  0  0
   34.1719   39.4055   70.3569 H   0  0  0  0  0  0  0  0  0  0  0  0
   31.6767   39.5059   70.0136 H   0  0  0  0  0  0  0  0  0  0  0  0
   32.4322   41.1167   70.1231 H   0  0  0  0  0  0  0  0  0  0  0  0
   31.5293   37.4202   67.3468 H   0  0  0  0  0  0  0  0  0  0  0  0
   31.8757   36.0318   65.3531 H   0  0  0  0  0  0  0  0  0  0  0  0
  1  2  1  0  0  0  0
  1 23  1  0  0  0  0
  1 24  1  0  0  0  0
  1 25  1  0  0  0  0
  2  3  2  0  0  0  0
  2  4  2  0  0  0  0
  2  5  1  0  0  0  0
  5 22  1  0  0  0  0
  5  6  1  0  0  0  0
  6  7  1  0  0  0  0
  6 26  1  0  0  0  0
  6 27  1  0  0  0  0
  7  8  1  0  0  0  0
  7 28  1  0  0  0  0
  7 29  1  0  0  0  0
  8 22  2  0  0  0  0
  8  9  1  0  0  0  0
  9 10  2  0  0  0  0
  9 30  1  0  0  0  0
 10 11  1  0  0  0  0
 10 20  1  0  0  0  0
 11 12  2  0  0  0  0
 11 13  2  0  0  0  0
 11 14  1  0  0  0  0
 14 19  1  0  0  0  0
 14 15  1  0  0  0  0
 15 16  1  0  0  0  0
 15 31  1  0  0  0  0
 15 32  1  0  0  0  0
 16 17  1  0  0  0  0
 16 33  1  0  0  0  0
 16 34  1  0  0  0  0
 17 18  1  0  0  0  0
 17 35  1  0  0  0  0
 17 36  1  0  0  0  0
 18 19  1  0  0  0  0
 18 37  1  0  0  0  0
 18 38  1  0  0  0  0
 19 39  1  0  0  0  0
 19 40  1  0  0  0  0
 20 21  2  0  0  0  0
 20 41  1  0  0  0  0
 21 22  1  0  0  0  0
 21 42  1  0  0  0  0
M  END
$$$$
