ZINC000000033615      none
 OpenBabel11202420153D

 33 34  0  0  1  0  0  0  0  0999 V2000
   30.1194   36.9545   59.9359 C   0  0  0  0  0  0  0  0  0  0  0  0
   29.9283   36.8699   61.3728 O   0  0  0  0  0  0  0  0  0  0  0  0
   30.9948   37.1289   62.1458 C   0  0  0  0  0  0  0  0  0  0  0  0
   32.0529   37.4168   61.6385 O   0  0  0  0  0  0  0  0  0  0  0  0
   30.8721   37.0608   63.6462 C   0  0  0  0  0  0  0  0  0  0  0  0
   32.1490   36.7662   64.3904 C   0  0  0  0  0  0  0  0  0  0  0  0
   32.7471   35.7375   64.1804 O   0  0  0  0  0  0  0  0  0  0  0  0
   32.6219   37.6466   65.2864 O   0  0  0  0  0  0  0  0  0  0  0  0
   33.8569   37.2971   65.9654 C   0  0  0  0  0  0  0  0  0  0  0  0
   29.5719   36.4980   64.2238 C   0  0  1  0  0  0  0  0  0  0  0  0
   28.8053   36.1771   63.5186 H   0  0  0  0  0  0  0  0  0  0  0  0
   29.6662   35.6916   65.4934 C   0  0  0  0  0  0  0  0  0  0  0  0
   29.8492   34.3228   65.4305 C   0  0  0  0  0  0  0  0  0  0  0  0
   29.9414   33.5833   66.5945 C   0  0  0  0  0  0  0  0  0  0  0  0
   29.8392   34.2121   67.8229 C   0  0  0  0  0  0  0  0  0  0  0  0
   29.9477   33.2827   69.2851 Cl  0  0  0  0  0  0  0  0  0  0  0  0
   29.6502   35.5810   67.8851 C   0  0  0  0  0  0  0  0  0  0  0  0
   29.5638   36.3201   66.7205 C   0  0  0  0  0  0  0  0  0  0  0  0
   29.8642   37.9970   64.3158 C   0  0  0  0  0  0  0  0  0  0  0  0
   30.2160   38.5411   65.6376 C   0  0  0  0  0  0  0  0  0  0  0  0
   30.4874   38.9609   66.6576 N   0  0  0  0  0  0  0  0  0  0  0  0
   29.0890   38.8958   63.4452 C   0  0  0  0  0  0  0  0  0  0  0  0
   28.4906   39.5895   62.7732 N   0  0  0  0  0  0  0  0  0  0  0  0
   29.1821   36.7226   59.4304 H   0  0  0  0  0  0  0  0  0  0  0  0
   30.4358   37.9632   59.6702 H   0  0  0  0  0  0  0  0  0  0  0  0
   30.8842   36.2412   59.6286 H   0  0  0  0  0  0  0  0  0  0  0  0
   33.7186   36.3657   66.5147 H   0  0  0  0  0  0  0  0  0  0  0  0
   34.6523   37.1707   65.2309 H   0  0  0  0  0  0  0  0  0  0  0  0
   34.1270   38.0921   66.6604 H   0  0  0  0  0  0  0  0  0  0  0  0
   29.9246   33.8317   64.4714 H   0  0  0  0  0  0  0  0  0  0  0  0
   30.0887   32.5147   66.5453 H   0  0  0  0  0  0  0  0  0  0  0  0
   29.5700   36.0720   68.8437 H   0  0  0  0  0  0  0  0  0  0  0  0
   29.4168   37.3889   66.7689 H   0  0  0  0  0  0  0  0  0  0  0  0
  1  2  1  0  0  0  0
  1 24  1  0  0  0  0
  1 25  1  0  0  0  0
  1 26  1  0  0  0  0
  2  3  1  0  0  0  0
  3  4  2  0  0  0  0
  3  5  1  0  0  0  0
  5 19  1  0  0  0  0
  5  6  1  0  0  0  0
  5 10  1  0  0  0  0
  6  7  2  0  0  0  0
  6  8  1  0  0  0  0
  8  9  1  0  0  0  0
  9 27  1  0  0  0  0
  9 28  1  0  0  0  0
  9 29  1  0  0  0  0
 10 11  1  6  0  0  0
 10 12  1  0  0  0  0
 10 19  1  0  0  0  0
 12 18  2  0  0  0  0
 12 13  1  0  0  0  0
 13 14  2  0  0  0  0
 13 30  1  0  0  0  0
 14 15  1  0  0  0  0
 14 31  1  0  0  0  0
 15 16  1  0  0  0  0
 15 17  2  0  0  0  0
 17 18  1  0  0  0  0
 17 32  1  0  0  0  0
 18 33  1  0  0  0  0
 19 20  1  0  0  0  0
 19 22  1  0  0  0  0
 20 21  3  0  0  0  0
 22 23  3  0  0  0  0
M  END
$$$$
