ZINC000000049348      none
 OpenBabel11202420153D

 38 40  0  0  1  0  0  0  0  0999 V2000
   32.1435   33.8568   57.7927 C   0  0  0  0  0  0  0  0  0  0  0  0
   32.4260   35.3316   57.9198 C   0  0  0  0  0  0  0  0  0  0  0  0
   32.9287   36.1095   56.9746 N   0  0  0  0  0  0  0  0  0  0  0  0
   33.0456   37.3557   57.4302 C   0  0  0  0  0  0  0  0  0  0  0  0
   33.5177   38.5347   56.8257 C   0  0  0  0  0  0  0  0  0  0  0  0
   33.5255   39.6954   57.5399 C   0  0  0  0  0  0  0  0  0  0  0  0
   33.0635   39.6974   58.8633 C   0  0  0  0  0  0  0  0  0  0  0  0
   32.6130   38.5533   59.4268 C   0  0  0  0  0  0  0  0  0  0  0  0
   32.6023   37.3910   58.7215 N   0  0  0  0  0  0  0  0  0  0  0  0
   32.2043   36.1070   59.0461 C   0  0  0  0  0  0  0  0  0  0  0  0
   31.6737   35.6704   60.2866 C   0  0  0  0  0  0  0  0  0  0  0  0
   30.8856   34.7425   60.3191 O   0  0  0  0  0  0  0  0  0  0  0  0
   32.0416   36.2823   61.4297 N   0  0  0  0  0  0  0  0  0  0  0  0
   31.4934   35.8312   62.7112 C   0  0  1  0  0  0  0  0  0  0  0  0
   30.8116   34.9979   62.5416 H   0  0  0  0  0  0  0  0  0  0  0  0
   32.6353   35.3783   63.6233 C   0  0  0  0  0  0  0  0  0  0  0  0
   30.7475   36.9655   63.3656 C   0  0  0  0  0  0  0  0  0  0  0  0
   30.6732   37.0397   64.7440 C   0  0  0  0  0  0  0  0  0  0  0  0
   29.9924   38.0823   65.3443 C   0  0  0  0  0  0  0  0  0  0  0  0
   29.3788   39.0461   64.5662 C   0  0  0  0  0  0  0  0  0  0  0  0
   29.4484   38.9688   63.1877 C   0  0  0  0  0  0  0  0  0  0  0  0
   30.1325   37.9284   62.5875 C   0  0  0  0  0  0  0  0  0  0  0  0
   33.0249   33.2908   58.0944 H   0  0  0  0  0  0  0  0  0  0  0  0
   31.3037   33.5911   58.4349 H   0  0  0  0  0  0  0  0  0  0  0  0
   31.8977   33.6218   56.7572 H   0  0  0  0  0  0  0  0  0  0  0  0
   33.8708   38.5203   55.8052 H   0  0  0  0  0  0  0  0  0  0  0  0
   33.8812   40.6093   57.0874 H   0  0  0  0  0  0  0  0  0  0  0  0
   33.0669   40.6143   59.4340 H   0  0  0  0  0  0  0  0  0  0  0  0
   32.2587   38.5630   60.4470 H   0  0  0  0  0  0  0  0  0  0  0  0
   32.6692   37.0214   61.4039 H   0  0  0  0  0  0  0  0  0  0  0  0
   33.3172   36.2117   63.7929 H   0  0  0  0  0  0  0  0  0  0  0  0
   32.2275   35.0427   64.5768 H   0  0  0  0  0  0  0  0  0  0  0  0
   33.1748   34.5580   63.1499 H   0  0  0  0  0  0  0  0  0  0  0  0
   31.1499   36.2850   65.3519 H   0  0  0  0  0  0  0  0  0  0  0  0
   29.9376   38.1425   66.4212 H   0  0  0  0  0  0  0  0  0  0  0  0
   28.8445   39.8591   65.0351 H   0  0  0  0  0  0  0  0  0  0  0  0
   28.9687   39.7216   62.5797 H   0  0  0  0  0  0  0  0  0  0  0  0
   30.1871   37.8681   61.5106 H   0  0  0  0  0  0  0  0  0  0  0  0
  1  2  1  0  0  0  0
  1 23  1  0  0  0  0
  1 24  1  0  0  0  0
  1 25  1  0  0  0  0
  2 10  2  0  0  0  0
  2  3  1  0  0  0  0
  3  4  2  0  0  0  0
  4  9  1  0  0  0  0
  4  5  1  0  0  0  0
  5  6  2  0  0  0  0
  5 26  1  0  0  0  0
  6  7  1  0  0  0  0
  6 27  1  0  0  0  0
  7  8  2  0  0  0  0
  7 28  1  0  0  0  0
  8  9  1  0  0  0  0
  8 29  1  0  0  0  0
  9 10  1  0  0  0  0
 10 11  1  0  0  0  0
 11 12  2  0  0  0  0
 11 13  1  0  0  0  0
 13 14  1  0  0  0  0
 13 30  1  0  0  0  0
 14 15  1  6  0  0  0
 14 16  1  0  0  0  0
 14 17  1  0  0  0  0
 16 31  1  0  0  0  0
 16 32  1  0  0  0  0
 16 33  1  0  0  0  0
 17 22  2  0  0  0  0
 17 18  1  0  0  0  0
 18 19  2  0  0  0  0
 18 34  1  0  0  0  0
 19 20  1  0  0  0  0
 19 35  1  0  0  0  0
 20 21  2  0  0  0  0
 20 36  1  0  0  0  0
 21 22  1  0  0  0  0
 21 37  1  0  0  0  0
 22 38  1  0  0  0  0
M  END
$$$$
