ZINC000000055566      none
 OpenBabel11202420153D

 34 37  0  0  0  0  0  0  0  0999 V2000
   33.3673   39.6847   56.8335 Cl  0  0  0  0  0  0  0  0  0  0  0  0
   33.2728   37.9639   57.0424 C   0  0  0  0  0  0  0  0  0  0  0  0
   32.8391   37.3119   58.1445 C   0  0  0  0  0  0  0  0  0  0  0  0
   32.3498   37.9600   59.4140 C   0  0  0  0  0  0  0  0  0  0  0  0
   30.8342   37.1385   59.9655 S   0  0  0  0  0  0  0  0  0  0  0  0
   30.8224   37.6233   61.6594 C   0  0  0  0  0  0  0  0  0  0  0  0
   30.7824   38.8547   62.1213 N   0  0  0  0  0  0  0  0  0  0  0  0
   30.7826   38.8545   63.4052 N   0  0  0  0  0  0  0  0  0  0  0  0
   30.8310   37.6485   63.8571 N   0  0  0  0  0  0  0  0  0  0  0  0
   30.8589   36.7949   62.7402 N   0  0  0  0  0  0  0  0  0  0  0  0
   30.9128   35.3938   62.7390 C   0  0  0  0  0  0  0  0  0  0  0  0
   30.3488   34.6751   63.7844 C   0  0  0  0  0  0  0  0  0  0  0  0
   30.3985   33.2947   63.7776 C   0  0  0  0  0  0  0  0  0  0  0  0
   31.0192   32.6290   62.7366 C   0  0  0  0  0  0  0  0  0  0  0  0
   31.5869   33.3423   61.6968 C   0  0  0  0  0  0  0  0  0  0  0  0
   31.5353   34.7225   61.6953 C   0  0  0  0  0  0  0  0  0  0  0  0
   32.9161   35.9973   57.9200 N   0  0  0  0  0  0  0  0  0  0  0  0
   33.3892   35.7913   56.6995 C   0  0  0  0  0  0  0  0  0  0  0  0
   33.6621   34.6145   55.9734 C   0  0  0  0  0  0  0  0  0  0  0  0
   34.1545   34.7107   54.7092 C   0  0  0  0  0  0  0  0  0  0  0  0
   34.3840   35.9773   54.1457 C   0  0  0  0  0  0  0  0  0  0  0  0
   34.1178   37.0953   54.8524 C   0  0  0  0  0  0  0  0  0  0  0  0
   33.6231   37.0137   56.1225 N   0  0  0  0  0  0  0  0  0  0  0  0
   33.1139   37.8693   60.1860 H   0  0  0  0  0  0  0  0  0  0  0  0
   32.1445   39.0142   59.2278 H   0  0  0  0  0  0  0  0  0  0  0  0
   29.8682   35.1947   64.6001 H   0  0  0  0  0  0  0  0  0  0  0  0
   29.9560   32.7350   64.5883 H   0  0  0  0  0  0  0  0  0  0  0  0
   31.0604   31.5498   62.7355 H   0  0  0  0  0  0  0  0  0  0  0  0
   32.0706   32.8196   60.8849 H   0  0  0  0  0  0  0  0  0  0  0  0
   31.9786   35.2792   60.8827 H   0  0  0  0  0  0  0  0  0  0  0  0
   33.4820   33.6461   56.4163 H   0  0  0  0  0  0  0  0  0  0  0  0
   34.3641   33.8176   54.1393 H   0  0  0  0  0  0  0  0  0  0  0  0
   34.7749   36.0561   53.1420 H   0  0  0  0  0  0  0  0  0  0  0  0
   34.2980   38.0638   54.4095 H   0  0  0  0  0  0  0  0  0  0  0  0
  1  2  1  0  0  0  0
  2 23  1  0  0  0  0
  2  3  2  0  0  0  0
  3  4  1  0  0  0  0
  3 17  1  0  0  0  0
  4  5  1  0  0  0  0
  4 24  1  0  0  0  0
  4 25  1  0  0  0  0
  5  6  1  0  0  0  0
  6 10  1  0  0  0  0
  6  7  2  0  0  0  0
  7  8  1  0  0  0  0
  8  9  2  0  0  0  0
  9 10  1  0  0  0  0
 10 11  1  0  0  0  0
 11 16  2  0  0  0  0
 11 12  1  0  0  0  0
 12 13  2  0  0  0  0
 12 26  1  0  0  0  0
 13 14  1  0  0  0  0
 13 27  1  0  0  0  0
 14 15  2  0  0  0  0
 14 28  1  0  0  0  0
 15 16  1  0  0  0  0
 15 29  1  0  0  0  0
 16 30  1  0  0  0  0
 17 18  2  0  0  0  0
 18 23  1  0  0  0  0
 18 19  1  0  0  0  0
 19 20  2  0  0  0  0
 19 31  1  0  0  0  0
 20 21  1  0  0  0  0
 20 32  1  0  0  0  0
 21 22  2  0  0  0  0
 21 33  1  0  0  0  0
 22 23  1  0  0  0  0
 22 34  1  0  0  0  0
M  END
$$$$
