ZINC000000001008      none
 OpenBabel11202420153D

 24 24  0  0  0  0  0  0  0  0999 V2000
   33.4926   36.2795   63.5411 O   0  0  0  0  0  0  0  0  0  0  0  0
   32.3706   35.8524   63.7126 C   0  0  0  0  0  0  0  0  0  0  0  0
   31.6760   35.0950   62.6102 C   0  0  0  0  0  0  0  0  0  0  0  0
   32.1483   35.5808   61.3112 N   0  0  0  0  0  0  0  0  0  0  0  0
   31.9797   36.8747   60.9739 C   0  0  0  0  0  0  0  0  0  0  0  0
   31.4358   37.6386   61.7473 O   0  0  0  0  0  0  0  0  0  0  0  0
   32.4561   37.3648   59.6635 C   0  0  0  0  0  0  0  0  0  0  0  0
   32.5514   36.4891   58.5803 C   0  0  0  0  0  0  0  0  0  0  0  0
   33.0008   36.9513   57.3613 C   0  0  0  0  0  0  0  0  0  0  0  0
   33.3477   38.2834   57.2077 C   0  0  0  0  0  0  0  0  0  0  0  0
   33.9058   38.8595   55.6681 Cl  0  0  0  0  0  0  0  0  0  0  0  0
   33.2508   39.1579   58.2775 C   0  0  0  0  0  0  0  0  0  0  0  0
   32.8073   38.7064   59.5026 C   0  0  0  0  0  0  0  0  0  0  0  0
   31.7450   36.0546   64.8891 N   0  0  0  0  0  0  0  0  0  0  0  0
   32.3977   36.7660   65.9248 O   0  0  0  0  0  0  0  0  0  0  0  0
   30.5996   35.2489   62.6862 H   0  0  0  0  0  0  0  0  0  0  0  0
   31.8986   34.0321   62.7034 H   0  0  0  0  0  0  0  0  0  0  0  0
   32.5824   34.9713   60.6942 H   0  0  0  0  0  0  0  0  0  0  0  0
   32.2770   35.4512   58.6978 H   0  0  0  0  0  0  0  0  0  0  0  0
   33.0781   36.2742   56.5234 H   0  0  0  0  0  0  0  0  0  0  0  0
   33.5227   40.1956   58.1517 H   0  0  0  0  0  0  0  0  0  0  0  0
   32.7314   39.3893   60.3359 H   0  0  0  0  0  0  0  0  0  0  0  0
   30.8476   35.7128   65.0261 H   0  0  0  0  0  0  0  0  0  0  0  0
   31.8704   36.8606   66.7299 H   0  0  0  0  0  0  0  0  0  0  0  0
  1  2  2  0  0  0  0
  2  3  1  0  0  0  0
  2 14  1  0  0  0  0
  3  4  1  0  0  0  0
  3 16  1  0  0  0  0
  3 17  1  0  0  0  0
  4  5  1  0  0  0  0
  4 18  1  0  0  0  0
  5  6  2  0  0  0  0
  5  7  1  0  0  0  0
  7 13  2  0  0  0  0
  7  8  1  0  0  0  0
  8  9  2  0  0  0  0
  8 19  1  0  0  0  0
  9 10  1  0  0  0  0
  9 20  1  0  0  0  0
 10 11  1  0  0  0  0
 10 12  2  0  0  0  0
 12 13  1  0  0  0  0
 12 21  1  0  0  0  0
 13 22  1  0  0  0  0
 14 15  1  0  0  0  0
 14 23  1  0  0  0  0
 15 24  1  0  0  0  0
M  END
$$$$
