ZINC000000039253      none
 OpenBabel11202420153D

 45 47  0  0  0  0  0  0  0  0999 V2000
   34.5751   40.7633   67.1702 C   0  0  0  0  0  0  0  0  0  0  0  0
   33.7913   39.6699   67.8992 C   0  0  0  0  0  0  0  0  0  0  0  0
   33.3998   38.6418   66.9517 O   0  0  0  0  0  0  0  0  0  0  0  0
   32.2123   38.7977   66.3365 C   0  0  0  0  0  0  0  0  0  0  0  0
   31.5221   39.7665   66.5846 O   0  0  0  0  0  0  0  0  0  0  0  0
   31.7917   37.8821   65.4414 N   0  0  0  0  0  0  0  0  0  0  0  0
   30.4982   38.0332   64.7579 C   0  0  0  0  0  0  0  0  0  0  0  0
   30.7318   37.8858   63.2460 C   0  0  0  0  0  0  0  0  0  0  0  0
   31.4275   36.6188   62.9844 N   0  0  0  0  0  0  0  0  0  0  0  0
   31.5104   36.3694   61.6241 C   0  0  0  0  0  0  0  0  0  0  0  0
   32.0992   37.1335   60.7568 N   0  0  0  0  0  0  0  0  0  0  0  0
   32.0817   36.7281   59.4879 C   0  0  0  0  0  0  0  0  0  0  0  0
   32.7219   37.5043   58.3978 C   0  0  0  0  0  0  0  0  0  0  0  0
   33.2421   36.8463   57.2845 C   0  0  0  0  0  0  0  0  0  0  0  0
   33.8324   37.5713   56.2704 C   0  0  0  0  0  0  0  0  0  0  0  0
   33.9182   38.9535   56.3625 C   0  0  0  0  0  0  0  0  0  0  0  0
   34.5048   39.6647   55.3638 O   0  0  0  0  0  0  0  0  0  0  0  0
   35.0102   38.9246   54.2508 C   0  0  0  0  0  0  0  0  0  0  0  0
   33.4059   39.6113   57.4724 C   0  0  0  0  0  0  0  0  0  0  0  0
   32.8096   38.8926   58.4874 C   0  0  0  0  0  0  0  0  0  0  0  0
   31.4386   35.5697   59.2638 C   0  0  0  0  0  0  0  0  0  0  0  0
   30.8264   34.9700   60.8032 S   0  0  0  0  0  0  0  0  0  0  0  0
   32.7592   36.6042   63.6044 C   0  0  0  0  0  0  0  0  0  0  0  0
   32.6114   36.7022   65.1265 C   0  0  0  0  0  0  0  0  0  0  0  0
   35.4659   40.3299   66.7155 H   0  0  0  0  0  0  0  0  0  0  0  0
   33.9487   41.2035   66.3944 H   0  0  0  0  0  0  0  0  0  0  0  0
   34.8690   41.5352   67.8814 H   0  0  0  0  0  0  0  0  0  0  0  0
   32.9005   40.1033   68.3539 H   0  0  0  0  0  0  0  0  0  0  0  0
   34.4177   39.2297   68.6750 H   0  0  0  0  0  0  0  0  0  0  0  0
   29.8099   37.2613   65.1021 H   0  0  0  0  0  0  0  0  0  0  0  0
   30.0841   39.0187   64.9715 H   0  0  0  0  0  0  0  0  0  0  0  0
   31.3401   38.7158   62.8865 H   0  0  0  0  0  0  0  0  0  0  0  0
   29.7722   37.8875   62.7287 H   0  0  0  0  0  0  0  0  0  0  0  0
   33.1793   35.7704   57.2141 H   0  0  0  0  0  0  0  0  0  0  0  0
   34.2324   37.0624   55.4058 H   0  0  0  0  0  0  0  0  0  0  0  0
   35.7696   38.2229   54.5957 H   0  0  0  0  0  0  0  0  0  0  0  0
   34.1951   38.3752   53.7795 H   0  0  0  0  0  0  0  0  0  0  0  0
   35.4513   39.6110   53.5281 H   0  0  0  0  0  0  0  0  0  0  0  0
   33.4745   40.6869   57.5413 H   0  0  0  0  0  0  0  0  0  0  0  0
   32.4108   39.4049   59.3505 H   0  0  0  0  0  0  0  0  0  0  0  0
   31.3175   35.0888   58.3044 H   0  0  0  0  0  0  0  0  0  0  0  0
   33.3393   37.4520   63.2399 H   0  0  0  0  0  0  0  0  0  0  0  0
   33.2703   35.6764   63.3475 H   0  0  0  0  0  0  0  0  0  0  0  0
   33.5953   36.8073   65.5838 H   0  0  0  0  0  0  0  0  0  0  0  0
   32.1224   35.8048   65.5054 H   0  0  0  0  0  0  0  0  0  0  0  0
  1  2  1  0  0  0  0
  1 25  1  0  0  0  0
  1 26  1  0  0  0  0
  1 27  1  0  0  0  0
  2  3  1  0  0  0  0
  2 28  1  0  0  0  0
  2 29  1  0  0  0  0
  3  4  1  0  0  0  0
  4  5  2  0  0  0  0
  4  6  1  0  0  0  0
  6 24  1  0  0  0  0
  6  7  1  0  0  0  0
  7  8  1  0  0  0  0
  7 30  1  0  0  0  0
  7 31  1  0  0  0  0
  8  9  1  0  0  0  0
  8 32  1  0  0  0  0
  8 33  1  0  0  0  0
  9 10  1  0  0  0  0
  9 23  1  0  0  0  0
 10 22  1  0  0  0  0
 10 11  2  0  0  0  0
 11 12  1  0  0  0  0
 12 13  1  0  0  0  0
 12 21  2  0  0  0  0
 13 20  2  0  0  0  0
 13 14  1  0  0  0  0
 14 15  2  0  0  0  0
 14 34  1  0  0  0  0
 15 16  1  0  0  0  0
 15 35  1  0  0  0  0
 16 17  1  0  0  0  0
 16 19  2  0  0  0  0
 17 18  1  0  0  0  0
 18 36  1  0  0  0  0
 18 37  1  0  0  0  0
 18 38  1  0  0  0  0
 19 20  1  0  0  0  0
 19 39  1  0  0  0  0
 20 40  1  0  0  0  0
 21 22  1  0  0  0  0
 21 41  1  0  0  0  0
 23 24  1  0  0  0  0
 23 42  1  0  0  0  0
 23 43  1  0  0  0  0
 24 44  1  0  0  0  0
 24 45  1  0  0  0  0
M  END
$$$$
