ZINC000000031664      none
 OpenBabel11202420163D

 38 38  0  0  0  0  0  0  0  0999 V2000
   34.4985   33.2878   54.6241 C   0  0  0  0  0  0  0  0  0  0  0  0
   33.5547   33.8475   53.5578 C   0  0  0  0  0  0  0  0  0  0  0  0
   33.6011   35.3766   53.5876 C   0  0  0  0  0  0  0  0  0  0  0  0
   32.6573   35.9363   52.5213 C   0  0  0  0  0  0  0  0  0  0  0  0
   33.0946   35.4394   51.1419 C   0  0  0  0  0  0  0  0  0  0  0  0
   33.1826   35.8522   54.9084 N   0  0  0  0  0  0  0  0  0  0  0  0
   33.6785   37.0060   55.3975 C   0  0  0  0  0  0  0  0  0  0  0  0
   34.4733   37.6521   54.7426 O   0  0  0  0  0  0  0  0  0  0  0  0
   33.2568   37.4852   56.7284 C   0  0  0  0  0  0  0  0  0  0  0  0
   32.8358   36.5732   57.7001 C   0  0  0  0  0  0  0  0  0  0  0  0
   32.4386   37.0240   58.9388 C   0  0  0  0  0  0  0  0  0  0  0  0
   32.4654   38.3848   59.2271 C   0  0  0  0  0  0  0  0  0  0  0  0
   32.0679   38.8374   60.4846 N   0  0  0  0  0  0  0  0  0  0  0  0
   31.6582   37.9569   61.4193 C   0  0  0  0  0  0  0  0  0  0  0  0
   31.2284   38.4461   62.7783 C   0  0  0  0  0  0  0  0  0  0  0  0
   31.6354   36.7710   61.1665 O   0  0  0  0  0  0  0  0  0  0  0  0
   32.8886   39.2950   58.2636 C   0  0  0  0  0  0  0  0  0  0  0  0
   33.2826   38.8514   57.0213 C   0  0  0  0  0  0  0  0  0  0  0  0
   35.5154   33.6245   54.4221 H   0  0  0  0  0  0  0  0  0  0  0  0
   34.1870   33.6418   55.6069 H   0  0  0  0  0  0  0  0  0  0  0  0
   34.4654   32.1985   54.6030 H   0  0  0  0  0  0  0  0  0  0  0  0
   32.5378   33.5109   53.7598 H   0  0  0  0  0  0  0  0  0  0  0  0
   33.8662   33.4936   52.5751 H   0  0  0  0  0  0  0  0  0  0  0  0
   34.6179   35.7132   53.3857 H   0  0  0  0  0  0  0  0  0  0  0  0
   31.6405   35.5995   52.7233 H   0  0  0  0  0  0  0  0  0  0  0  0
   32.6903   37.0256   52.5425 H   0  0  0  0  0  0  0  0  0  0  0  0
   32.4222   35.8381   50.3823 H   0  0  0  0  0  0  0  0  0  0  0  0
   34.1114   35.7762   50.9399 H   0  0  0  0  0  0  0  0  0  0  0  0
   33.0616   34.3501   51.1208 H   0  0  0  0  0  0  0  0  0  0  0  0
   32.5484   35.3368   55.4311 H   0  0  0  0  0  0  0  0  0  0  0  0
   32.8189   35.5163   57.4783 H   0  0  0  0  0  0  0  0  0  0  0  0
   32.1099   36.3200   59.6889 H   0  0  0  0  0  0  0  0  0  0  0  0
   32.0861   39.7858   60.6868 H   0  0  0  0  0  0  0  0  0  0  0  0
   30.3838   39.1264   62.6692 H   0  0  0  0  0  0  0  0  0  0  0  0
   30.9332   37.5963   63.3937 H   0  0  0  0  0  0  0  0  0  0  0  0
   32.0572   38.9695   63.2549 H   0  0  0  0  0  0  0  0  0  0  0  0
   32.9082   40.3507   58.4907 H   0  0  0  0  0  0  0  0  0  0  0  0
   33.6116   39.5584   56.2742 H   0  0  0  0  0  0  0  0  0  0  0  0
  1  2  1  0  0  0  0
  1 19  1  0  0  0  0
  1 20  1  0  0  0  0
  1 21  1  0  0  0  0
  2  3  1  0  0  0  0
  2 22  1  0  0  0  0
  2 23  1  0  0  0  0
  3  4  1  0  0  0  0
  3  6  1  0  0  0  0
  3 24  1  0  0  0  0
  4  5  1  0  0  0  0
  4 25  1  0  0  0  0
  4 26  1  0  0  0  0
  5 27  1  0  0  0  0
  5 28  1  0  0  0  0
  5 29  1  0  0  0  0
  6  7  1  0  0  0  0
  6 30  1  0  0  0  0
  7  8  2  0  0  0  0
  7  9  1  0  0  0  0
  9 18  2  0  0  0  0
  9 10  1  0  0  0  0
 10 11  2  0  0  0  0
 10 31  1  0  0  0  0
 11 12  1  0  0  0  0
 11 32  1  0  0  0  0
 12 13  1  0  0  0  0
 12 17  2  0  0  0  0
 13 14  1  0  0  0  0
 13 33  1  0  0  0  0
 14 15  1  0  0  0  0
 14 16  2  0  0  0  0
 15 34  1  0  0  0  0
 15 35  1  0  0  0  0
 15 36  1  0  0  0  0
 17 18  1  0  0  0  0
 17 37  1  0  0  0  0
 18 38  1  0  0  0  0
M  END
$$$$
