ZINC000000000873      none
 OpenBabel11202420153D

 33 34  0  0  0  0  0  0  0  0999 V2000
   28.4604   36.7553   62.2483 C   0  0  0  0  0  0  0  0  0  0  0  0
   29.3897   36.1244   61.2438 C   0  0  0  0  0  0  0  0  0  0  0  0
   29.1503   36.2113   60.0581 O   0  0  0  0  0  0  0  0  0  0  0  0
   30.4869   35.4636   61.6630 N   0  0  0  0  0  0  0  0  0  0  0  0
   30.7624   35.3634   63.0269 C   0  0  0  0  0  0  0  0  0  0  0  0
   29.9396   34.7717   64.0218 C   0  0  0  0  0  0  0  0  0  0  0  0
   30.6469   34.9257   65.1642 C   0  0  0  0  0  0  0  0  0  0  0  0
   30.2407   34.4728   66.5430 C   0  0  0  0  0  0  0  0  0  0  0  0
   31.7775   35.5654   64.8317 O   0  0  0  0  0  0  0  0  0  0  0  0
   31.8270   35.8008   63.6467 N   0  0  0  0  0  0  0  0  0  0  0  0
   31.5081   34.7702   60.5591 S   0  0  0  0  0  0  0  0  0  0  0  0
   30.7038   33.9351   59.7376 O   0  0  0  0  0  0  0  0  0  0  0  0
   32.6276   34.2927   61.2926 O   0  0  0  0  0  0  0  0  0  0  0  0
   32.1077   36.0610   59.5205 C   0  0  0  0  0  0  0  0  0  0  0  0
   32.4417   35.7901   58.2062 C   0  0  0  0  0  0  0  0  0  0  0  0
   32.9116   36.7995   57.3893 C   0  0  0  0  0  0  0  0  0  0  0  0
   33.0487   38.0883   57.8892 C   0  0  0  0  0  0  0  0  0  0  0  0
   33.5241   39.1116   57.0659 N   0  0  0  0  0  0  0  0  0  0  0  0
   32.7174   38.3559   59.2114 C   0  0  0  0  0  0  0  0  0  0  0  0
   32.2431   37.3428   60.0214 C   0  0  0  0  0  0  0  0  0  0  0  0
   28.7794   36.4888   63.2559 H   0  0  0  0  0  0  0  0  0  0  0  0
   28.4840   37.8392   62.1345 H   0  0  0  0  0  0  0  0  0  0  0  0
   27.4455   36.3946   62.0811 H   0  0  0  0  0  0  0  0  0  0  0  0
   28.9738   34.3049   63.8951 H   0  0  0  0  0  0  0  0  0  0  0  0
   31.0171   34.7445   67.2581 H   0  0  0  0  0  0  0  0  0  0  0  0
   29.3041   34.9552   66.8226 H   0  0  0  0  0  0  0  0  0  0  0  0
   30.1069   33.3910   66.5453 H   0  0  0  0  0  0  0  0  0  0  0  0
   32.3352   34.7878   57.8182 H   0  0  0  0  0  0  0  0  0  0  0  0
   33.1725   36.5871   56.3630 H   0  0  0  0  0  0  0  0  0  0  0  0
   33.7590   38.9226   56.1439 H   0  0  0  0  0  0  0  0  0  0  0  0
   33.6156   40.0119   57.4149 H   0  0  0  0  0  0  0  0  0  0  0  0
   32.8270   39.3558   59.6045 H   0  0  0  0  0  0  0  0  0  0  0  0
   31.9814   37.5511   61.0483 H   0  0  0  0  0  0  0  0  0  0  0  0
  1  2  1  0  0  0  0
  1 21  1  0  0  0  0
  1 22  1  0  0  0  0
  1 23  1  0  0  0  0
  2  3  2  0  0  0  0
  2  4  1  0  0  0  0
  4  5  1  0  0  0  0
  4 11  1  0  0  0  0
  5 10  2  0  0  0  0
  5  6  1  0  0  0  0
  6  7  2  0  0  0  0
  6 24  1  0  0  0  0
  7  8  1  0  0  0  0
  7  9  1  0  0  0  0
  8 25  1  0  0  0  0
  8 26  1  0  0  0  0
  8 27  1  0  0  0  0
  9 10  1  0  0  0  0
 11 12  2  0  0  0  0
 11 13  2  0  0  0  0
 11 14  1  0  0  0  0
 14 20  2  0  0  0  0
 14 15  1  0  0  0  0
 15 16  2  0  0  0  0
 15 28  1  0  0  0  0
 16 17  1  0  0  0  0
 16 29  1  0  0  0  0
 17 18  1  0  0  0  0
 17 19  2  0  0  0  0
 18 30  1  0  0  0  0
 18 31  1  0  0  0  0
 19 20  1  0  0  0  0
 19 32  1  0  0  0  0
 20 33  1  0  0  0  0
M  END
$$$$
