ZINC000000036390      none
 OpenBabel11202420153D

 28 31  0  0  1  0  0  0  0  0999 V2000
   33.2784   36.9713   67.6216 Cl  0  0  0  0  0  0  0  0  0  0  0  0
   32.6157   36.4038   66.1207 C   0  0  0  0  0  0  0  0  0  0  0  0
   31.4525   35.6547   66.1171 C   0  0  0  0  0  0  0  0  0  0  0  0
   30.9251   35.2037   64.9217 C   0  0  0  0  0  0  0  0  0  0  0  0
   31.5598   35.5005   63.7301 C   0  0  0  0  0  0  0  0  0  0  0  0
   30.9847   35.0079   62.4272 C   0  0  2  0  0  0  0  0  0  0  0  0
   29.9049   34.9064   62.5367 H   0  0  0  0  0  0  0  0  0  0  0  0
   31.5762   33.6350   62.1153 C   0  0  0  0  0  0  0  0  0  0  0  0
   32.3991   33.8612   60.5104 S   0  0  0  0  0  0  0  0  0  0  0  0
   31.9827   35.5686   60.3234 C   0  0  0  0  0  0  0  0  0  0  0  0
   32.2867   36.4637   59.2861 C   0  0  0  0  0  0  0  0  0  0  0  0
   32.9585   36.3743   58.1263 N   0  0  0  0  0  0  0  0  0  0  0  0
   32.9263   37.5520   57.5393 C   0  0  0  0  0  0  0  0  0  0  0  0
   32.2502   38.4191   58.2811 N   0  0  0  0  0  0  0  0  0  0  0  0
   31.8277   37.7999   59.3803 C   0  0  0  0  0  0  0  0  0  0  0  0
   31.1160   38.1588   60.4645 N   0  0  0  0  0  0  0  0  0  0  0  0
   30.8508   37.3118   61.4055 C   0  0  0  0  0  0  0  0  0  0  0  0
   31.2620   35.9954   61.3863 N   0  0  0  0  0  0  0  0  0  0  0  0
   32.7223   36.2487   63.7332 C   0  0  0  0  0  0  0  0  0  0  0  0
   33.2504   36.7006   64.9278 C   0  0  0  0  0  0  0  0  0  0  0  0
   30.9544   35.4263   67.0476 H   0  0  0  0  0  0  0  0  0  0  0  0
   30.0172   34.6189   64.9188 H   0  0  0  0  0  0  0  0  0  0  0  0
   32.3000   33.3490   62.8784 H   0  0  0  0  0  0  0  0  0  0  0  0
   30.7866   32.8878   62.0375 H   0  0  0  0  0  0  0  0  0  0  0  0
   33.3856   37.7801   56.5887 H   0  0  0  0  0  0  0  0  0  0  0  0
   30.2759   37.6545   62.2532 H   0  0  0  0  0  0  0  0  0  0  0  0
   33.2182   36.4795   62.8019 H   0  0  0  0  0  0  0  0  0  0  0  0
   34.1587   37.2851   64.9301 H   0  0  0  0  0  0  0  0  0  0  0  0
  1  2  1  0  0  0  0
  2 20  2  0  0  0  0
  2  3  1  0  0  0  0
  3  4  2  0  0  0  0
  3 21  1  0  0  0  0
  4  5  1  0  0  0  0
  4 22  1  0  0  0  0
  5  6  1  0  0  0  0
  5 19  2  0  0  0  0
  6  7  1  1  0  0  0
  6 18  1  0  0  0  0
  6  8  1  0  0  0  0
  8  9  1  0  0  0  0
  8 23  1  0  0  0  0
  8 24  1  0  0  0  0
  9 10  1  0  0  0  0
 10 18  1  0  0  0  0
 10 11  2  0  0  0  0
 11 15  1  0  0  0  0
 11 12  1  0  0  0  0
 12 13  2  0  0  0  0
 13 14  1  0  0  0  0
 13 25  1  0  0  0  0
 14 15  2  0  0  0  0
 15 16  1  0  0  0  0
 16 17  2  0  0  0  0
 17 18  1  0  0  0  0
 17 26  1  0  0  0  0
 19 20  1  0  0  0  0
 19 27  1  0  0  0  0
 20 28  1  0  0  0  0
M  END
$$$$
