ZINC000000012806      none
 OpenBabel11202420153D

 29 31  0  0  1  0  0  0  0  0999 V2000
   29.3466   37.5618   63.3668 O   0  0  0  0  0  0  0  0  0  0  0  0
   30.3790   37.2142   62.8280 C   0  0  0  0  0  0  0  0  0  0  0  0
   30.7047   37.5673   61.6126 N   0  0  0  0  0  0  0  0  0  0  0  0
   31.8235   37.1774   61.0460 C   0  0  0  0  0  0  0  0  0  0  0  0
   32.2753   37.5186   59.6832 C   0  0  0  0  0  0  0  0  0  0  0  0
   32.5083   36.5078   58.7474 C   0  0  0  0  0  0  0  0  0  0  0  0
   32.9309   36.8341   57.4756 C   0  0  0  0  0  0  0  0  0  0  0  0
   33.1236   38.1597   57.1258 C   0  0  0  0  0  0  0  0  0  0  0  0
   32.8953   39.1654   58.0476 C   0  0  0  0  0  0  0  0  0  0  0  0
   32.4726   38.8540   59.3229 C   0  0  0  0  0  0  0  0  0  0  0  0
   32.6967   36.1727   62.2183 S   0  0  0  0  0  0  0  0  0  0  0  0
   31.4113   36.3361   63.5046 C   0  0  2  0  0  0  0  0  0  0  0  0
   30.8292   34.9906   63.8535 C   0  0  0  0  0  0  0  0  0  0  0  0
   30.2279   34.7954   65.0828 C   0  0  0  0  0  0  0  0  0  0  0  0
   29.6905   33.5623   65.4014 C   0  0  0  0  0  0  0  0  0  0  0  0
   29.7620   32.5218   64.4931 C   0  0  0  0  0  0  0  0  0  0  0  0
   30.3676   32.7158   63.2664 C   0  0  0  0  0  0  0  0  0  0  0  0
   30.9015   33.9500   62.9464 C   0  0  0  0  0  0  0  0  0  0  0  0
   32.3578   35.4733   59.0190 H   0  0  0  0  0  0  0  0  0  0  0  0
   33.1072   36.0539   56.7498 H   0  0  0  0  0  0  0  0  0  0  0  0
   33.4548   38.4087   56.1284 H   0  0  0  0  0  0  0  0  0  0  0  0
   33.0487   40.1972   57.7678 H   0  0  0  0  0  0  0  0  0  0  0  0
   32.2949   39.6405   60.0415 H   0  0  0  0  0  0  0  0  0  0  0  0
   31.8125   36.8245   64.3927 H   0  0  0  0  0  0  0  0  0  0  0  0
   30.1755   35.6071   65.7933 H   0  0  0  0  0  0  0  0  0  0  0  0
   29.2178   33.4107   66.3605 H   0  0  0  0  0  0  0  0  0  0  0  0
   29.3452   31.5576   64.7441 H   0  0  0  0  0  0  0  0  0  0  0  0
   30.4237   31.9029   62.5576 H   0  0  0  0  0  0  0  0  0  0  0  0
   31.3748   34.1014   61.9875 H   0  0  0  0  0  0  0  0  0  0  0  0
  1  2  2  0  0  0  0
  2 12  1  0  0  0  0
  2  3  1  0  0  0  0
  3  4  2  0  0  0  0
  4  5  1  0  0  0  0
  4 11  1  0  0  0  0
  5 10  2  0  0  0  0
  5  6  1  0  0  0  0
  6  7  2  0  0  0  0
  6 19  1  0  0  0  0
  7  8  1  0  0  0  0
  7 20  1  0  0  0  0
  8  9  2  0  0  0  0
  8 21  1  0  0  0  0
  9 10  1  0  0  0  0
  9 22  1  0  0  0  0
 10 23  1  0  0  0  0
 11 12  1  0  0  0  0
 12 13  1  0  0  0  0
 12 24  1  1  0  0  0
 13 18  2  0  0  0  0
 13 14  1  0  0  0  0
 14 15  2  0  0  0  0
 14 25  1  0  0  0  0
 15 16  1  0  0  0  0
 15 26  1  0  0  0  0
 16 17  2  0  0  0  0
 16 27  1  0  0  0  0
 17 18  1  0  0  0  0
 17 28  1  0  0  0  0
 18 29  1  0  0  0  0
M  END
$$$$
