ZINC000000034013      none
 OpenBabel11202420153D

 24 25  0  0  0  0  0  0  0  0999 V2000
   31.1305   34.7567   63.7856 S   0  0  0  0  0  0  0  0  0  0  0  0
   31.3776   36.4079   63.4068 C   0  0  0  0  0  0  0  0  0  0  0  0
   31.9567   37.3095   64.4052 C   0  0  0  0  0  0  0  0  0  0  0  0
   33.1830   37.1761   64.9922 C   0  0  0  0  0  0  0  0  0  0  0  0
   33.3265   38.2565   65.8774 C   0  0  0  0  0  0  0  0  0  0  0  0
   32.1934   38.9880   65.7988 C   0  0  0  0  0  0  0  0  0  0  0  0
   31.3702   38.4143   64.9108 O   0  0  0  0  0  0  0  0  0  0  0  0
   31.0392   36.8781   62.1898 N   0  0  0  0  0  0  0  0  0  0  0  0
   31.2364   38.2946   61.8434 C   0  0  0  0  0  0  0  0  0  0  0  0
   31.9899   38.3602   60.5052 C   0  0  0  0  0  0  0  0  0  0  0  0
   31.3019   37.5608   59.5400 O   0  0  0  0  0  0  0  0  0  0  0  0
   31.2425   36.1704   59.8670 C   0  0  0  0  0  0  0  0  0  0  0  0
   30.4560   35.9915   61.1706 C   0  0  0  0  0  0  0  0  0  0  0  0
   33.9034   36.3926   64.8091 H   0  0  0  0  0  0  0  0  0  0  0  0
   34.1806   38.4620   66.5054 H   0  0  0  0  0  0  0  0  0  0  0  0
   31.9852   39.8869   66.3601 H   0  0  0  0  0  0  0  0  0  0  0  0
   30.2689   38.7873   61.7477 H   0  0  0  0  0  0  0  0  0  0  0  0
   31.8231   38.7844   62.6206 H   0  0  0  0  0  0  0  0  0  0  0  0
   33.0034   37.9809   60.6361 H   0  0  0  0  0  0  0  0  0  0  0  0
   32.0296   39.3934   60.1604 H   0  0  0  0  0  0  0  0  0  0  0  0
   32.2533   35.7831   59.9955 H   0  0  0  0  0  0  0  0  0  0  0  0
   30.7442   35.6277   59.0636 H   0  0  0  0  0  0  0  0  0  0  0  0
   30.5254   34.9554   61.5020 H   0  0  0  0  0  0  0  0  0  0  0  0
   29.4110   36.2558   61.0087 H   0  0  0  0  0  0  0  0  0  0  0  0
  1  2  2  0  0  0  0
  2  3  1  0  0  0  0
  2  8  1  0  0  0  0
  3  7  1  0  0  0  0
  3  4  2  0  0  0  0
  4  5  1  0  0  0  0
  4 14  1  0  0  0  0
  5  6  2  0  0  0  0
  5 15  1  0  0  0  0
  6  7  1  0  0  0  0
  6 16  1  0  0  0  0
  8 13  1  0  0  0  0
  8  9  1  0  0  0  0
  9 10  1  0  0  0  0
  9 17  1  0  0  0  0
  9 18  1  0  0  0  0
 10 11  1  0  0  0  0
 10 19  1  0  0  0  0
 10 20  1  0  0  0  0
 11 12  1  0  0  0  0
 12 13  1  0  0  0  0
 12 21  1  0  0  0  0
 12 22  1  0  0  0  0
 13 23  1  0  0  0  0
 13 24  1  0  0  0  0
M  END
$$$$
