ZINC000000000380      none
 OpenBabel11202420153D

 45 46  0  0  1  0  0  0  0  0999 V2000
   29.1394   38.5698   66.4298 C   0  0  0  0  0  0  0  0  0  0  0  0
   29.6775   38.5372   64.9979 C   0  0  0  0  0  0  0  0  0  0  0  0
   30.8491   39.5131   64.8712 C   0  0  0  0  0  0  0  0  0  0  0  0
   30.1542   37.1221   64.6643 C   0  0  0  0  0  0  0  0  0  0  0  0
   30.6842   37.0900   63.2540 C   0  0  0  0  0  0  0  0  0  0  0  0
   32.0205   37.3480   63.0118 C   0  0  0  0  0  0  0  0  0  0  0  0
   32.5067   37.3185   61.7181 C   0  0  0  0  0  0  0  0  0  0  0  0
   31.6569   37.0302   60.6668 C   0  0  0  0  0  0  0  0  0  0  0  0
   32.1870   36.9981   59.2564 C   0  0  2  0  0  0  0  0  0  0  0  0
   33.2530   37.2252   59.2636 H   0  0  0  0  0  0  0  0  0  0  0  0
   31.4496   38.0382   58.4106 C   0  0  0  0  0  0  0  0  0  0  0  0
   31.9694   35.6274   58.6690 C   0  0  0  0  0  0  0  0  0  0  0  0
   31.4383   34.7651   59.3281 O   0  0  0  0  0  0  0  0  0  0  0  0
   32.3656   35.3644   57.4139 O   0  0  0  0  0  0  0  0  0  0  0  0
   32.1242   34.0228   56.9138 C   0  0  0  0  0  0  0  0  0  0  0  0
   32.6317   33.9152   55.4988 C   0  0  0  0  0  0  0  0  0  0  0  0
   33.3708   32.8102   55.1204 C   0  0  0  0  0  0  0  0  0  0  0  0
   33.8292   32.7188   53.8152 C   0  0  0  0  0  0  0  0  0  0  0  0
   33.5343   33.7519   52.9384 C   0  0  0  0  0  0  0  0  0  0  0  0
   32.7897   34.8254   53.3886 C   0  0  0  0  0  0  0  0  0  0  0  0
   32.3660   34.8766   54.6364 N   0  0  0  0  0  0  0  0  0  0  0  0
   30.3196   36.7769   60.9084 C   0  0  0  0  0  0  0  0  0  0  0  0
   29.8342   36.8020   62.2026 C   0  0  0  0  0  0  0  0  0  0  0  0
   28.3047   37.8744   66.5201 H   0  0  0  0  0  0  0  0  0  0  0  0
   29.9302   38.2800   67.1219 H   0  0  0  0  0  0  0  0  0  0  0  0
   28.7998   39.5778   66.6675 H   0  0  0  0  0  0  0  0  0  0  0  0
   28.8869   38.8267   64.3059 H   0  0  0  0  0  0  0  0  0  0  0  0
   31.2326   39.4899   63.8510 H   0  0  0  0  0  0  0  0  0  0  0  0
   30.5095   40.5211   65.1088 H   0  0  0  0  0  0  0  0  0  0  0  0
   31.6398   39.2233   65.5632 H   0  0  0  0  0  0  0  0  0  0  0  0
   29.3195   36.4268   64.7547 H   0  0  0  0  0  0  0  0  0  0  0  0
   30.9449   36.8325   65.3563 H   0  0  0  0  0  0  0  0  0  0  0  0
   32.6846   37.5730   63.8333 H   0  0  0  0  0  0  0  0  0  0  0  0
   33.5506   37.5205   61.5289 H   0  0  0  0  0  0  0  0  0  0  0  0
   31.6070   39.0296   58.8355 H   0  0  0  0  0  0  0  0  0  0  0  0
   31.8331   38.0150   57.3905 H   0  0  0  0  0  0  0  0  0  0  0  0
   30.3836   37.8111   58.4034 H   0  0  0  0  0  0  0  0  0  0  0  0
   31.0542   33.8151   56.9327 H   0  0  0  0  0  0  0  0  0  0  0  0
   32.6455   33.3013   57.5427 H   0  0  0  0  0  0  0  0  0  0  0  0
   33.5854   32.0262   55.8314 H   0  0  0  0  0  0  0  0  0  0  0  0
   34.4057   31.8654   53.4901 H   0  0  0  0  0  0  0  0  0  0  0  0
   33.8783   33.7158   51.9153 H   0  0  0  0  0  0  0  0  0  0  0  0
   32.5522   35.6320   52.7108 H   0  0  0  0  0  0  0  0  0  0  0  0
   29.6547   36.5559   60.0865 H   0  0  0  0  0  0  0  0  0  0  0  0
   28.7903   36.6000   62.3917 H   0  0  0  0  0  0  0  0  0  0  0  0
  1  2  1  0  0  0  0
  1 24  1  0  0  0  0
  1 25  1  0  0  0  0
  1 26  1  0  0  0  0
  2  3  1  0  0  0  0
  2  4  1  0  0  0  0
  2 27  1  0  0  0  0
  3 28  1  0  0  0  0
  3 29  1  0  0  0  0
  3 30  1  0  0  0  0
  4  5  1  0  0  0  0
  4 31  1  0  0  0  0
  4 32  1  0  0  0  0
  5 23  2  0  0  0  0
  5  6  1  0  0  0  0
  6  7  2  0  0  0  0
  6 33  1  0  0  0  0
  7  8  1  0  0  0  0
  7 34  1  0  0  0  0
  8  9  1  0  0  0  0
  8 22  2  0  0  0  0
  9 10  1  1  0  0  0
  9 11  1  0  0  0  0
  9 12  1  0  0  0  0
 11 35  1  0  0  0  0
 11 36  1  0  0  0  0
 11 37  1  0  0  0  0
 12 13  2  0  0  0  0
 12 14  1  0  0  0  0
 14 15  1  0  0  0  0
 15 16  1  0  0  0  0
 15 38  1  0  0  0  0
 15 39  1  0  0  0  0
 16 21  2  0  0  0  0
 16 17  1  0  0  0  0
 17 18  2  0  0  0  0
 17 40  1  0  0  0  0
 18 19  1  0  0  0  0
 18 41  1  0  0  0  0
 19 20  2  0  0  0  0
 19 42  1  0  0  0  0
 20 21  1  0  0  0  0
 20 43  1  0  0  0  0
 22 23  1  0  0  0  0
 22 44  1  0  0  0  0
 23 45  1  0  0  0  0
M  END
$$$$
