ZINC000000044777      none
 OpenBabel11202420153D

 44 46  0  0  1  0  0  0  0  0999 V2000
   34.7893   39.1241   54.4742 C   0  0  0  0  0  0  0  0  0  0  0  0
   34.5329   39.6770   55.7668 O   0  0  0  0  0  0  0  0  0  0  0  0
   33.9309   38.8658   56.6767 C   0  0  0  0  0  0  0  0  0  0  0  0
   33.6532   39.3390   57.9509 C   0  0  0  0  0  0  0  0  0  0  0  0
   33.0421   38.5153   58.8754 C   0  0  0  0  0  0  0  0  0  0  0  0
   32.7057   37.2137   58.5298 C   0  0  0  0  0  0  0  0  0  0  0  0
   32.0851   36.3760   59.4694 N   0  0  0  0  0  0  0  0  0  0  0  0
   32.2440   35.0467   59.4713 C   0  0  0  0  0  0  0  0  0  0  0  0
   32.9222   34.4196   58.6863 O   0  0  0  0  0  0  0  0  0  0  0  0
   31.4426   34.4512   60.6083 C   0  0  0  0  0  0  0  0  0  0  0  0
   30.7860   35.6799   61.2701 C   0  0  1  0  0  0  0  0  0  0  0  0
   29.6996   35.6080   61.2197 H   0  0  0  0  0  0  0  0  0  0  0  0
   31.2295   35.8150   62.6641 N   0  0  0  0  0  0  0  0  0  0  0  0
   32.5576   36.4387   62.7359 C   0  0  0  0  0  0  0  0  0  0  0  0
   30.2500   36.5693   63.4574 C   0  0  0  0  0  0  0  0  0  0  0  0
   30.9164   37.1099   64.6963 C   0  0  0  0  0  0  0  0  0  0  0  0
   30.9302   36.3593   65.8570 C   0  0  0  0  0  0  0  0  0  0  0  0
   31.5422   36.8548   66.9932 C   0  0  0  0  0  0  0  0  0  0  0  0
   32.1387   38.1015   66.9691 C   0  0  0  0  0  0  0  0  0  0  0  0
   32.1232   38.8528   65.8089 C   0  0  0  0  0  0  0  0  0  0  0  0
   31.5120   38.3570   64.6724 C   0  0  0  0  0  0  0  0  0  0  0  0
   31.2821   36.8426   60.4385 C   0  0  0  0  0  0  0  0  0  0  0  0
   30.9991   38.0072   60.6204 O   0  0  0  0  0  0  0  0  0  0  0  0
   32.9885   36.7390   57.2564 C   0  0  0  0  0  0  0  0  0  0  0  0
   33.5947   37.5650   56.3307 C   0  0  0  0  0  0  0  0  0  0  0  0
   35.2714   39.8744   53.8473 H   0  0  0  0  0  0  0  0  0  0  0  0
   35.4439   38.2581   54.5729 H   0  0  0  0  0  0  0  0  0  0  0  0
   33.8486   38.8182   54.0167 H   0  0  0  0  0  0  0  0  0  0  0  0
   33.9146   40.3518   58.2196 H   0  0  0  0  0  0  0  0  0  0  0  0
   32.8256   38.8839   59.8673 H   0  0  0  0  0  0  0  0  0  0  0  0
   32.0982   33.9402   61.3134 H   0  0  0  0  0  0  0  0  0  0  0  0
   30.6828   33.7682   60.2286 H   0  0  0  0  0  0  0  0  0  0  0  0
   32.8920   36.4629   63.7730 H   0  0  0  0  0  0  0  0  0  0  0  0
   33.2635   35.8601   62.1399 H   0  0  0  0  0  0  0  0  0  0  0  0
   32.5027   37.4559   62.3481 H   0  0  0  0  0  0  0  0  0  0  0  0
   29.4299   35.9109   63.7438 H   0  0  0  0  0  0  0  0  0  0  0  0
   29.8613   37.3966   62.8635 H   0  0  0  0  0  0  0  0  0  0  0  0
   30.4644   35.3850   65.8758 H   0  0  0  0  0  0  0  0  0  0  0  0
   31.5582   36.2658   67.8984 H   0  0  0  0  0  0  0  0  0  0  0  0
   32.6165   38.4887   67.8570 H   0  0  0  0  0  0  0  0  0  0  0  0
   32.5890   39.8271   65.7902 H   0  0  0  0  0  0  0  0  0  0  0  0
   31.5003   38.9439   63.7659 H   0  0  0  0  0  0  0  0  0  0  0  0
   32.7306   35.7251   56.9883 H   0  0  0  0  0  0  0  0  0  0  0  0
   33.8111   37.1971   55.3387 H   0  0  0  0  0  0  0  0  0  0  0  0
  1  2  1  0  0  0  0
  1 26  1  0  0  0  0
  1 27  1  0  0  0  0
  1 28  1  0  0  0  0
  2  3  1  0  0  0  0
  3 25  2  0  0  0  0
  3  4  1  0  0  0  0
  4  5  2  0  0  0  0
  4 29  1  0  0  0  0
  5  6  1  0  0  0  0
  5 30  1  0  0  0  0
  6  7  1  0  0  0  0
  6 24  2  0  0  0  0
  7 22  1  0  0  0  0
  7  8  1  0  0  0  0
  8  9  2  0  0  0  0
  8 10  1  0  0  0  0
 10 11  1  0  0  0  0
 10 31  1  0  0  0  0
 10 32  1  0  0  0  0
 11 12  1  6  0  0  0
 11 13  1  0  0  0  0
 11 22  1  0  0  0  0
 13 14  1  0  0  0  0
 13 15  1  0  0  0  0
 14 33  1  0  0  0  0
 14 34  1  0  0  0  0
 14 35  1  0  0  0  0
 15 16  1  0  0  0  0
 15 36  1  0  0  0  0
 15 37  1  0  0  0  0
 16 21  2  0  0  0  0
 16 17  1  0  0  0  0
 17 18  2  0  0  0  0
 17 38  1  0  0  0  0
 18 19  1  0  0  0  0
 18 39  1  0  0  0  0
 19 20  2  0  0  0  0
 19 40  1  0  0  0  0
 20 21  1  0  0  0  0
 20 41  1  0  0  0  0
 21 42  1  0  0  0  0
 22 23  2  0  0  0  0
 24 25  1  0  0  0  0
 24 43  1  0  0  0  0
 25 44  1  0  0  0  0
M  END
$$$$
