ZINC000000052207      none
 OpenBabel11202420153D

 45 46  0  0  1  0  0  0  0  0999 V2000
   30.8821   36.3036   64.5579 C   0  0  0  0  0  0  0  0  0  0  0  0
   31.6287   36.9551   63.3921 C   0  0  0  0  0  0  0  0  0  0  0  0
   33.1160   36.6072   63.4809 C   0  0  0  0  0  0  0  0  0  0  0  0
   31.0616   36.4360   62.0694 C   0  0  1  0  0  0  0  0  0  0  0  0
   29.5742   36.7839   61.9807 C   0  0  0  0  0  0  0  0  0  0  0  0
   31.7764   37.0599   60.9532 N   0  0  0  0  0  0  0  0  0  0  0  0
   31.4449   36.7510   59.6838 C   0  0  0  0  0  0  0  0  0  0  0  0
   30.5560   35.9508   59.4652 O   0  0  0  0  0  0  0  0  0  0  0  0
   32.1605   37.3840   58.5598 C   0  0  0  0  0  0  0  0  0  0  0  0
   32.1536   38.7751   58.4037 C   0  0  0  0  0  0  0  0  0  0  0  0
   32.8405   39.3194   57.3333 C   0  0  0  0  0  0  0  0  0  0  0  0
   33.5079   38.4826   56.4565 C   0  0  0  0  0  0  0  0  0  0  0  0
   33.5010   37.1743   56.6222 N   0  0  0  0  0  0  0  0  0  0  0  0
   32.8652   36.6030   57.6314 C   0  0  0  0  0  0  0  0  0  0  0  0
   32.8899   35.2559   57.7664 O   0  0  0  0  0  0  0  0  0  0  0  0
   33.5790   34.5346   56.8430 C   0  0  0  0  0  0  0  0  0  0  0  0
   34.4251   33.5131   57.2501 C   0  0  0  0  0  0  0  0  0  0  0  0
   35.1206   32.7775   56.3103 C   0  0  0  0  0  0  0  0  0  0  0  0
   34.9820   33.0660   54.9632 C   0  0  0  0  0  0  0  0  0  0  0  0
   35.6670   32.3491   54.0456 F   0  0  0  0  0  0  0  0  0  0  0  0
   34.1424   34.0890   54.5558 C   0  0  0  0  0  0  0  0  0  0  0  0
   33.4416   34.8228   55.4930 C   0  0  0  0  0  0  0  0  0  0  0  0
   31.2324   34.9402   62.0021 C   0  0  0  0  0  0  0  0  0  0  0  0
   32.3524   34.4131   61.4690 N   0  0  0  0  0  0  0  0  0  0  0  0
   30.3620   34.2107   62.4279 O   0  0  0  0  0  0  0  0  0  0  0  0
   31.0876   35.2332   64.5683 H   0  0  0  0  0  0  0  0  0  0  0  0
   31.2157   36.7467   65.4963 H   0  0  0  0  0  0  0  0  0  0  0  0
   29.8108   36.4666   64.4397 H   0  0  0  0  0  0  0  0  0  0  0  0
   31.5050   38.0370   63.4409 H   0  0  0  0  0  0  0  0  0  0  0  0
   33.6603   37.1372   62.6994 H   0  0  0  0  0  0  0  0  0  0  0  0
   33.5008   36.9037   64.4566 H   0  0  0  0  0  0  0  0  0  0  0  0
   33.2461   35.5330   63.3501 H   0  0  0  0  0  0  0  0  0  0  0  0
   29.1701   36.4140   61.0384 H   0  0  0  0  0  0  0  0  0  0  0  0
   29.0423   36.3197   62.8113 H   0  0  0  0  0  0  0  0  0  0  0  0
   29.4506   37.8657   62.0294 H   0  0  0  0  0  0  0  0  0  0  0  0
   32.4855   37.6984   61.1277 H   0  0  0  0  0  0  0  0  0  0  0  0
   31.6248   39.4077   59.1012 H   0  0  0  0  0  0  0  0  0  0  0  0
   32.8560   40.3889   57.1835 H   0  0  0  0  0  0  0  0  0  0  0  0
   34.0438   38.9084   55.6211 H   0  0  0  0  0  0  0  0  0  0  0  0
   34.5367   33.2908   58.3011 H   0  0  0  0  0  0  0  0  0  0  0  0
   35.7758   31.9794   56.6267 H   0  0  0  0  0  0  0  0  0  0  0  0
   34.0357   34.3135   53.5048 H   0  0  0  0  0  0  0  0  0  0  0  0
   32.7870   35.6208   55.1750 H   0  0  0  0  0  0  0  0  0  0  0  0
   33.0485   34.9967   61.1286 H   0  0  0  0  0  0  0  0  0  0  0  0
   32.4624   33.4504   61.4258 H   0  0  0  0  0  0  0  0  0  0  0  0
  1  2  1  0  0  0  0
  1 26  1  0  0  0  0
  1 27  1  0  0  0  0
  1 28  1  0  0  0  0
  2  3  1  0  0  0  0
  2  4  1  0  0  0  0
  2 29  1  0  0  0  0
  3 30  1  0  0  0  0
  3 31  1  0  0  0  0
  3 32  1  0  0  0  0
  4  5  1  0  0  0  0
  4  6  1  0  0  0  0
  4 23  1  6  0  0  0
  5 33  1  0  0  0  0
  5 34  1  0  0  0  0
  5 35  1  0  0  0  0
  6  7  1  0  0  0  0
  6 36  1  0  0  0  0
  7  8  2  0  0  0  0
  7  9  1  0  0  0  0
  9 14  2  0  0  0  0
  9 10  1  0  0  0  0
 10 11  2  0  0  0  0
 10 37  1  0  0  0  0
 11 12  1  0  0  0  0
 11 38  1  0  0  0  0
 12 13  2  0  0  0  0
 12 39  1  0  0  0  0
 13 14  1  0  0  0  0
 14 15  1  0  0  0  0
 15 16  1  0  0  0  0
 16 22  2  0  0  0  0
 16 17  1  0  0  0  0
 17 18  2  0  0  0  0
 17 40  1  0  0  0  0
 18 19  1  0  0  0  0
 18 41  1  0  0  0  0
 19 20  1  0  0  0  0
 19 21  2  0  0  0  0
 21 22  1  0  0  0  0
 21 42  1  0  0  0  0
 22 43  1  0  0  0  0
 23 24  1  0  0  0  0
 23 25  2  0  0  0  0
 24 44  1  0  0  0  0
 24 45  1  0  0  0  0
M  END
$$$$
