ZINC000000039247      none
 OpenBabel11202420153D

 40 41  0  0  0  0  0  0  0  0999 V2000
   34.1244   37.9075   55.0725 C   0  0  0  0  0  0  0  0  0  0  0  0
   33.6077   36.9078   56.0104 N   0  0  0  0  0  0  0  0  0  0  0  0
   33.4640   35.5124   55.5881 C   0  0  0  0  0  0  0  0  0  0  0  0
   33.2562   37.2806   57.2918 C   0  0  0  0  0  0  0  0  0  0  0  0
   33.3861   38.5459   57.6758 N   0  0  0  0  0  0  0  0  0  0  0  0
   33.0468   38.8998   58.9104 C   0  0  0  0  0  0  0  0  0  0  0  0
   33.1803   40.2126   59.3141 N   0  0  0  0  0  0  0  0  0  0  0  0
   32.5830   37.9853   59.7594 N   0  0  0  0  0  0  0  0  0  0  0  0
   32.4504   36.7289   59.3723 C   0  0  0  0  0  0  0  0  0  0  0  0
   31.9201   35.6979   60.3349 C   0  0  0  0  0  0  0  0  0  0  0  0
   30.7532   36.2392   61.0363 N   0  0  0  0  0  0  0  0  0  0  0  0
   29.8914   37.2215   60.3743 C   0  0  0  0  0  0  0  0  0  0  0  0
   30.4086   35.7403   62.5773 S   0  0  0  0  0  0  0  0  0  0  0  0
   29.0191   35.9666   62.7711 O   0  0  0  0  0  0  0  0  0  0  0  0
   31.0175   34.4657   62.7321 O   0  0  0  0  0  0  0  0  0  0  0  0
   31.2484   36.8299   63.6784 C   0  0  0  0  0  0  0  0  0  0  0  0
   32.5328   36.5356   64.0959 C   0  0  0  0  0  0  0  0  0  0  0  0
   33.1935   37.3929   64.9558 C   0  0  0  0  0  0  0  0  0  0  0  0
   32.5658   38.5393   65.4061 C   0  0  0  0  0  0  0  0  0  0  0  0
   31.2792   38.8307   64.9931 C   0  0  0  0  0  0  0  0  0  0  0  0
   30.6206   37.9760   64.1289 C   0  0  0  0  0  0  0  0  0  0  0  0
   32.7870   36.3729   58.1448 N   0  0  0  0  0  0  0  0  0  0  0  0
   34.1597   38.8809   55.5619 H   0  0  0  0  0  0  0  0  0  0  0  0
   35.1280   37.6237   54.7555 H   0  0  0  0  0  0  0  0  0  0  0  0
   33.4702   37.9619   54.2024 H   0  0  0  0  0  0  0  0  0  0  0  0
   32.4713   35.3616   55.1640 H   0  0  0  0  0  0  0  0  0  0  0  0
   34.2191   35.2806   54.8369 H   0  0  0  0  0  0  0  0  0  0  0  0
   33.5948   34.8569   56.4491 H   0  0  0  0  0  0  0  0  0  0  0  0
   33.5221   40.8777   58.6962 H   0  0  0  0  0  0  0  0  0  0  0  0
   32.9286   40.4712   60.2146 H   0  0  0  0  0  0  0  0  0  0  0  0
   31.6306   34.8024   59.7852 H   0  0  0  0  0  0  0  0  0  0  0  0
   32.6942   35.4451   61.0594 H   0  0  0  0  0  0  0  0  0  0  0  0
   29.0986   36.7039   59.8343 H   0  0  0  0  0  0  0  0  0  0  0  0
   29.4508   37.8809   61.1223 H   0  0  0  0  0  0  0  0  0  0  0  0
   30.4833   37.8108   59.6740 H   0  0  0  0  0  0  0  0  0  0  0  0
   33.0217   35.6378   63.7473 H   0  0  0  0  0  0  0  0  0  0  0  0
   34.1985   37.1650   65.2790 H   0  0  0  0  0  0  0  0  0  0  0  0
   33.0806   39.2072   66.0810 H   0  0  0  0  0  0  0  0  0  0  0  0
   30.7889   39.7262   65.3451 H   0  0  0  0  0  0  0  0  0  0  0  0
   29.6154   38.2037   63.8062 H   0  0  0  0  0  0  0  0  0  0  0  0
  1  2  1  0  0  0  0
  1 23  1  0  0  0  0
  1 24  1  0  0  0  0
  1 25  1  0  0  0  0
  2  3  1  0  0  0  0
  2  4  1  0  0  0  0
  3 26  1  0  0  0  0
  3 27  1  0  0  0  0
  3 28  1  0  0  0  0
  4 22  2  0  0  0  0
  4  5  1  0  0  0  0
  5  6  2  0  0  0  0
  6  7  1  0  0  0  0
  6  8  1  0  0  0  0
  7 29  1  0  0  0  0
  7 30  1  0  0  0  0
  8  9  2  0  0  0  0
  9 10  1  0  0  0  0
  9 22  1  0  0  0  0
 10 11  1  0  0  0  0
 10 31  1  0  0  0  0
 10 32  1  0  0  0  0
 11 12  1  0  0  0  0
 11 13  1  0  0  0  0
 12 33  1  0  0  0  0
 12 34  1  0  0  0  0
 12 35  1  0  0  0  0
 13 14  2  0  0  0  0
 13 15  2  0  0  0  0
 13 16  1  0  0  0  0
 16 21  2  0  0  0  0
 16 17  1  0  0  0  0
 17 18  2  0  0  0  0
 17 36  1  0  0  0  0
 18 19  1  0  0  0  0
 18 37  1  0  0  0  0
 19 20  2  0  0  0  0
 19 38  1  0  0  0  0
 20 21  1  0  0  0  0
 20 39  1  0  0  0  0
 21 40  1  0  0  0  0
M  END
$$$$
