ZINC000000039100      none
 OpenBabel11202420153D

 20 20  0  0  0  0  0  0  0  0999 V2000
   30.6971   38.7822   62.7048 C   0  0  0  0  0  0  0  0  0  0  0  0
   31.0241   38.5844   61.3040 O   0  0  0  0  0  0  0  0  0  0  0  0
   32.0523   37.7586   61.0264 C   0  0  0  0  0  0  0  0  0  0  0  0
   32.6590   37.2186   61.9304 O   0  0  0  0  0  0  0  0  0  0  0  0
   32.4407   37.5105   59.6275 C   0  0  0  0  0  0  0  0  0  0  0  0
   32.3999   36.2139   59.1054 C   0  0  0  0  0  0  0  0  0  0  0  0
   32.7704   35.9875   57.7978 C   0  0  0  0  0  0  0  0  0  0  0  0
   32.7218   34.2318   57.0970 Br  0  0  0  0  0  0  0  0  0  0  0  0
   33.1783   37.0406   56.9925 C   0  0  0  0  0  0  0  0  0  0  0  0
   33.2184   38.3268   57.4914 C   0  0  0  0  0  0  0  0  0  0  0  0
   33.7759   39.7532   56.3821 Br  0  0  0  0  0  0  0  0  0  0  0  0
   32.8488   38.5749   58.8086 C   0  0  0  0  0  0  0  0  0  0  0  0
   32.8887   39.8685   59.3132 N   0  0  0  0  0  0  0  0  0  0  0  0
   30.4337   37.8252   63.1550 H   0  0  0  0  0  0  0  0  0  0  0  0
   31.5588   39.2029   63.2231 H   0  0  0  0  0  0  0  0  0  0  0  0
   29.8532   39.4672   62.7876 H   0  0  0  0  0  0  0  0  0  0  0  0
   32.0832   35.3901   59.7280 H   0  0  0  0  0  0  0  0  0  0  0  0
   33.4660   36.8530   55.9686 H   0  0  0  0  0  0  0  0  0  0  0  0
   32.8149   40.6261   58.7119 H   0  0  0  0  0  0  0  0  0  0  0  0
   32.9904   40.0142   60.2667 H   0  0  0  0  0  0  0  0  0  0  0  0
  1  2  1  0  0  0  0
  1 14  1  0  0  0  0
  1 15  1  0  0  0  0
  1 16  1  0  0  0  0
  2  3  1  0  0  0  0
  3  4  2  0  0  0  0
  3  5  1  0  0  0  0
  5 12  2  0  0  0  0
  5  6  1  0  0  0  0
  6  7  2  0  0  0  0
  6 17  1  0  0  0  0
  7  8  1  0  0  0  0
  7  9  1  0  0  0  0
  9 10  2  0  0  0  0
  9 18  1  0  0  0  0
 10 11  1  0  0  0  0
 10 12  1  0  0  0  0
 12 13  1  0  0  0  0
 13 19  1  0  0  0  0
 13 20  1  0  0  0  0
M  END
$$$$
