ZINC000000029611      none
 OpenBabel11202420163D

 43 45  0  0  0  0  0  0  0  0999 V2000
   29.3429   37.2437   61.5063 O   0  0  0  0  0  0  0  0  0  0  0  0
   30.7586   37.3659   61.5211 S   0  0  0  0  0  0  0  0  0  0  0  0
   31.4307   38.6179   61.5141 O   0  0  0  0  0  0  0  0  0  0  0  0
   31.3495   36.4762   60.1196 C   0  0  0  0  0  0  0  0  0  0  0  0
   30.8235   35.2337   59.8184 C   0  0  0  0  0  0  0  0  0  0  0  0
   31.2827   34.5370   58.7167 C   0  0  0  0  0  0  0  0  0  0  0  0
   32.2773   35.0793   57.9206 C   0  0  0  0  0  0  0  0  0  0  0  0
   32.7304   34.3971   56.8462 F   0  0  0  0  0  0  0  0  0  0  0  0
   32.8070   36.3215   58.2263 C   0  0  0  0  0  0  0  0  0  0  0  0
   32.3426   37.0187   59.3255 C   0  0  0  0  0  0  0  0  0  0  0  0
   31.2835   36.5608   62.8697 N   0  0  0  0  0  0  0  0  0  0  0  0
   30.3224   36.0297   63.8459 C   0  0  0  0  0  0  0  0  0  0  0  0
   30.6848   36.5637   65.2353 C   0  0  0  0  0  0  0  0  0  0  0  0
   32.1452   36.2246   65.5426 C   0  0  0  0  0  0  0  0  0  0  0  0
   32.5008   36.7260   66.9437 C   0  0  0  0  0  0  0  0  0  0  0  0
   32.3085   38.2193   67.0067 C   0  0  0  0  0  0  0  0  0  0  0  0
   33.3567   39.0649   66.6954 C   0  0  0  0  0  0  0  0  0  0  0  0
   33.1788   40.4348   66.7486 C   0  0  0  0  0  0  0  0  0  0  0  0
   31.9558   40.9589   67.1231 C   0  0  0  0  0  0  0  0  0  0  0  0
   30.9091   40.1132   67.4395 C   0  0  0  0  0  0  0  0  0  0  0  0
   31.0854   38.7434   67.3813 C   0  0  0  0  0  0  0  0  0  0  0  0
   33.0549   36.8995   64.5135 C   0  0  0  0  0  0  0  0  0  0  0  0
   32.7193   36.3695   63.1159 C   0  0  0  0  0  0  0  0  0  0  0  0
   30.0506   34.8091   60.4419 H   0  0  0  0  0  0  0  0  0  0  0  0
   30.8689   33.5682   58.4792 H   0  0  0  0  0  0  0  0  0  0  0  0
   33.5832   36.7453   57.6064 H   0  0  0  0  0  0  0  0  0  0  0  0
   32.7553   37.9877   59.5640 H   0  0  0  0  0  0  0  0  0  0  0  0
   29.3158   36.3536   63.5812 H   0  0  0  0  0  0  0  0  0  0  0  0
   30.3691   34.9408   63.8492 H   0  0  0  0  0  0  0  0  0  0  0  0
   30.0392   36.1019   65.9823 H   0  0  0  0  0  0  0  0  0  0  0  0
   30.5502   37.6451   65.2560 H   0  0  0  0  0  0  0  0  0  0  0  0
   32.2844   35.1445   65.4972 H   0  0  0  0  0  0  0  0  0  0  0  0
   31.8535   36.2449   67.6769 H   0  0  0  0  0  0  0  0  0  0  0  0
   33.5408   36.4840   67.1631 H   0  0  0  0  0  0  0  0  0  0  0  0
   34.3137   38.6553   66.4073 H   0  0  0  0  0  0  0  0  0  0  0  0
   33.9967   41.0955   66.5018 H   0  0  0  0  0  0  0  0  0  0  0  0
   31.8181   42.0291   67.1690 H   0  0  0  0  0  0  0  0  0  0  0  0
   29.9536   40.5226   67.7324 H   0  0  0  0  0  0  0  0  0  0  0  0
   30.2678   38.0827   67.6288 H   0  0  0  0  0  0  0  0  0  0  0  0
   34.0960   36.6768   64.7467 H   0  0  0  0  0  0  0  0  0  0  0  0
   32.8979   37.9778   64.5409 H   0  0  0  0  0  0  0  0  0  0  0  0
   32.9613   35.3082   63.0597 H   0  0  0  0  0  0  0  0  0  0  0  0
   33.2942   36.9156   62.3680 H   0  0  0  0  0  0  0  0  0  0  0  0
  1  2  2  0  0  0  0
  2  3  2  0  0  0  0
  2  4  1  0  0  0  0
  2 11  1  0  0  0  0
  4 10  2  0  0  0  0
  4  5  1  0  0  0  0
  5  6  2  0  0  0  0
  5 24  1  0  0  0  0
  6  7  1  0  0  0  0
  6 25  1  0  0  0  0
  7  8  1  0  0  0  0
  7  9  2  0  0  0  0
  9 10  1  0  0  0  0
  9 26  1  0  0  0  0
 10 27  1  0  0  0  0
 11 23  1  0  0  0  0
 11 12  1  0  0  0  0
 12 13  1  0  0  0  0
 12 28  1  0  0  0  0
 12 29  1  0  0  0  0
 13 14  1  0  0  0  0
 13 30  1  0  0  0  0
 13 31  1  0  0  0  0
 14 15  1  0  0  0  0
 14 22  1  0  0  0  0
 14 32  1  0  0  0  0
 15 16  1  0  0  0  0
 15 33  1  0  0  0  0
 15 34  1  0  0  0  0
 16 21  2  0  0  0  0
 16 17  1  0  0  0  0
 17 18  2  0  0  0  0
 17 35  1  0  0  0  0
 18 19  1  0  0  0  0
 18 36  1  0  0  0  0
 19 20  2  0  0  0  0
 19 37  1  0  0  0  0
 20 21  1  0  0  0  0
 20 38  1  0  0  0  0
 21 39  1  0  0  0  0
 22 23  1  0  0  0  0
 22 40  1  0  0  0  0
 22 41  1  0  0  0  0
 23 42  1  0  0  0  0
 23 43  1  0  0  0  0
M  END
$$$$
