ZINC000000001075      none
 OpenBabel11202420153D

 32 32  0  0  0  0  0  0  0  0999 V2000
   30.5311   37.7442   61.8087 C   0  0  0  0  0  0  0  0  0  0  0  0
   31.2673   37.1758   60.6230 C   0  0  0  0  0  0  0  0  0  0  0  0
   31.3997   35.9754   60.5096 O   0  0  0  0  0  0  0  0  0  0  0  0
   31.7790   38.0013   59.6884 N   0  0  0  0  0  0  0  0  0  0  0  0
   32.4637   37.4730   58.5861 C   0  0  0  0  0  0  0  0  0  0  0  0
   32.9961   38.3234   57.6264 C   0  0  0  0  0  0  0  0  0  0  0  0
   33.6661   37.8018   56.5375 C   0  0  0  0  0  0  0  0  0  0  0  0
   33.8173   36.4289   56.4082 C   0  0  0  0  0  0  0  0  0  0  0  0
   34.4824   35.9161   55.3388 O   0  0  0  0  0  0  0  0  0  0  0  0
   33.7073   35.6125   54.1774 C   0  0  0  0  0  0  0  0  0  0  0  0
   32.2401   35.9586   54.4387 C   0  0  0  0  0  0  0  0  0  0  0  0
   34.2215   36.4326   52.9925 C   0  0  0  0  0  0  0  0  0  0  0  0
   33.8305   34.1215   53.8574 C   0  0  0  0  0  0  0  0  0  0  0  0
   33.2905   35.5789   57.3696 C   0  0  0  0  0  0  0  0  0  0  0  0
   32.6152   36.0989   58.4560 C   0  0  0  0  0  0  0  0  0  0  0  0
   29.4713   37.8336   61.5695 H   0  0  0  0  0  0  0  0  0  0  0  0
   30.6557   37.0818   62.6652 H   0  0  0  0  0  0  0  0  0  0  0  0
   30.9337   38.7282   62.0487 H   0  0  0  0  0  0  0  0  0  0  0  0
   31.6732   38.9613   59.7790 H   0  0  0  0  0  0  0  0  0  0  0  0
   32.8827   39.3925   57.7294 H   0  0  0  0  0  0  0  0  0  0  0  0
   34.0766   38.4630   55.7886 H   0  0  0  0  0  0  0  0  0  0  0  0
   32.1039   37.0379   54.3727 H   0  0  0  0  0  0  0  0  0  0  0  0
   31.6128   35.4670   53.6949 H   0  0  0  0  0  0  0  0  0  0  0  0
   31.9580   35.6169   55.4347 H   0  0  0  0  0  0  0  0  0  0  0  0
   35.2668   36.1860   52.8063 H   0  0  0  0  0  0  0  0  0  0  0  0
   33.6302   36.2010   52.1065 H   0  0  0  0  0  0  0  0  0  0  0  0
   34.1337   37.4949   53.2205 H   0  0  0  0  0  0  0  0  0  0  0  0
   33.6365   33.5393   54.7581 H   0  0  0  0  0  0  0  0  0  0  0  0
   33.1057   33.8537   53.0886 H   0  0  0  0  0  0  0  0  0  0  0  0
   34.8372   33.9090   53.4973 H   0  0  0  0  0  0  0  0  0  0  0  0
   33.4087   34.5101   57.2685 H   0  0  0  0  0  0  0  0  0  0  0  0
   32.2054   35.4371   59.2047 H   0  0  0  0  0  0  0  0  0  0  0  0
  1  2  1  0  0  0  0
  1 16  1  0  0  0  0
  1 17  1  0  0  0  0
  1 18  1  0  0  0  0
  2  3  2  0  0  0  0
  2  4  1  0  0  0  0
  4  5  1  0  0  0  0
  4 19  1  0  0  0  0
  5 15  2  0  0  0  0
  5  6  1  0  0  0  0
  6  7  2  0  0  0  0
  6 20  1  0  0  0  0
  7  8  1  0  0  0  0
  7 21  1  0  0  0  0
  8  9  1  0  0  0  0
  8 14  2  0  0  0  0
  9 10  1  0  0  0  0
 10 11  1  0  0  0  0
 10 12  1  0  0  0  0
 10 13  1  0  0  0  0
 11 22  1  0  0  0  0
 11 23  1  0  0  0  0
 11 24  1  0  0  0  0
 12 25  1  0  0  0  0
 12 26  1  0  0  0  0
 12 27  1  0  0  0  0
 13 28  1  0  0  0  0
 13 29  1  0  0  0  0
 13 30  1  0  0  0  0
 14 15  1  0  0  0  0
 14 31  1  0  0  0  0
 15 32  1  0  0  0  0
M  END
$$$$
