ZINC000000039586      none
 OpenBabel11202420153D

 22 23  0  0  0  0  0  0  0  0999 V2000
   34.1020   38.4233   55.2370 N   0  0  0  0  0  0  0  0  0  0  0  0
   33.6297   38.4436   56.5354 C   0  0  0  0  0  0  0  0  0  0  0  0
   33.6699   39.5934   57.2020 N   0  0  0  0  0  0  0  0  0  0  0  0
   33.2326   39.6807   58.4503 C   0  0  0  0  0  0  0  0  0  0  0  0
   33.2750   40.8733   59.1386 N   0  0  0  0  0  0  0  0  0  0  0  0
   32.7024   38.4657   59.0722 C   0  0  0  0  0  0  0  0  0  0  0  0
   32.2407   38.4541   60.3185 N   0  0  0  0  0  0  0  0  0  0  0  0
   31.7746   37.3332   60.8270 C   0  0  0  0  0  0  0  0  0  0  0  0
   31.2499   37.3162   62.2396 C   0  0  0  0  0  0  0  0  0  0  0  0
   31.7554   36.1666   62.9216 O   0  0  0  0  0  0  0  0  0  0  0  0
   31.7619   36.1613   60.0715 C   0  0  0  0  0  0  0  0  0  0  0  0
   32.2144   36.1516   58.8356 N   0  0  0  0  0  0  0  0  0  0  0  0
   32.6915   37.2777   58.2999 C   0  0  0  0  0  0  0  0  0  0  0  0
   33.1583   37.3236   57.0456 N   0  0  0  0  0  0  0  0  0  0  0  0
   34.4511   39.2341   54.8351 H   0  0  0  0  0  0  0  0  0  0  0  0
   34.0882   37.5971   54.7288 H   0  0  0  0  0  0  0  0  0  0  0  0
   33.6295   41.6681   58.7102 H   0  0  0  0  0  0  0  0  0  0  0  0
   32.9505   40.9182   60.0516 H   0  0  0  0  0  0  0  0  0  0  0  0
   31.5742   38.2183   62.7585 H   0  0  0  0  0  0  0  0  0  0  0  0
   30.1606   37.2786   62.2221 H   0  0  0  0  0  0  0  0  0  0  0  0
   31.5054   35.3261   62.5141 H   0  0  0  0  0  0  0  0  0  0  0  0
   31.3760   35.2507   60.5055 H   0  0  0  0  0  0  0  0  0  0  0  0
  1  2  1  0  0  0  0
  1 15  1  0  0  0  0
  1 16  1  0  0  0  0
  2 14  2  0  0  0  0
  2  3  1  0  0  0  0
  3  4  2  0  0  0  0
  4  5  1  0  0  0  0
  4  6  1  0  0  0  0
  5 17  1  0  0  0  0
  5 18  1  0  0  0  0
  6 13  2  0  0  0  0
  6  7  1  0  0  0  0
  7  8  2  0  0  0  0
  8  9  1  0  0  0  0
  8 11  1  0  0  0  0
  9 10  1  0  0  0  0
  9 19  1  0  0  0  0
  9 20  1  0  0  0  0
 10 21  1  0  0  0  0
 11 12  2  0  0  0  0
 11 22  1  0  0  0  0
 12 13  1  0  0  0  0
 13 14  1  0  0  0  0
M  END
$$$$
