ZINC000000023204      none
 OpenBabel11202420153D

 35 36  0  0  0  0  0  0  0  0999 V2000
   29.6326   36.4141   64.0355 C   0  0  0  0  0  0  0  0  0  0  0  0
   30.3547   35.2046   63.6333 N   0  0  0  0  0  0  0  0  0  0  0  0
   29.8033   33.8840   63.9466 C   0  0  0  0  0  0  0  0  0  0  0  0
   31.7942   35.3303   62.8243 S   0  0  0  0  0  0  0  0  0  0  0  0
   32.1592   34.0098   62.4471 O   0  0  0  0  0  0  0  0  0  0  0  0
   32.6254   36.1712   63.6126 O   0  0  0  0  0  0  0  0  0  0  0  0
   31.4961   36.1527   61.4182 N   0  0  0  0  0  0  0  0  0  0  0  0
   31.1243   35.4357   60.1889 C   0  0  0  0  0  0  0  0  0  0  0  0
   32.0402   35.9072   59.0546 C   0  0  0  0  0  0  0  0  0  0  0  0
   31.9845   37.3722   58.9606 N   0  0  0  0  0  0  0  0  0  0  0  0
   32.6707   37.8243   57.8470 C   0  0  0  0  0  0  0  0  0  0  0  0
   32.7242   39.1258   57.6046 N   0  0  0  0  0  0  0  0  0  0  0  0
   33.3763   39.5913   56.5521 C   0  0  0  0  0  0  0  0  0  0  0  0
   33.9979   38.6989   55.6927 C   0  0  0  0  0  0  0  0  0  0  0  0
   33.9174   37.3438   55.9730 C   0  0  0  0  0  0  0  0  0  0  0  0
   33.2538   36.9450   57.0455 N   0  0  0  0  0  0  0  0  0  0  0  0
   32.4933   38.0043   60.1851 C   0  0  0  0  0  0  0  0  0  0  0  0
   31.5956   37.6192   61.3658 C   0  0  0  0  0  0  0  0  0  0  0  0
   30.1926   37.2940   63.7186 H   0  0  0  0  0  0  0  0  0  0  0  0
   28.6482   36.4221   63.5677 H   0  0  0  0  0  0  0  0  0  0  0  0
   29.5199   36.4263   65.1196 H   0  0  0  0  0  0  0  0  0  0  0  0
   30.1699   33.5589   64.9202 H   0  0  0  0  0  0  0  0  0  0  0  0
   28.7151   33.9405   63.9684 H   0  0  0  0  0  0  0  0  0  0  0  0
   30.1149   33.1700   63.1842 H   0  0  0  0  0  0  0  0  0  0  0  0
   30.0868   35.6550   59.9371 H   0  0  0  0  0  0  0  0  0  0  0  0
   31.2490   34.3632   60.3383 H   0  0  0  0  0  0  0  0  0  0  0  0
   31.7081   35.4695   58.1131 H   0  0  0  0  0  0  0  0  0  0  0  0
   33.0640   35.5946   59.2598 H   0  0  0  0  0  0  0  0  0  0  0  0
   33.4199   40.6536   56.3619 H   0  0  0  0  0  0  0  0  0  0  0  0
   34.5330   39.0517   54.8235 H   0  0  0  0  0  0  0  0  0  0  0  0
   34.3903   36.6223   55.3233 H   0  0  0  0  0  0  0  0  0  0  0  0
   33.5107   37.6626   60.3751 H   0  0  0  0  0  0  0  0  0  0  0  0
   32.4902   39.0875   60.0635 H   0  0  0  0  0  0  0  0  0  0  0  0
   32.0316   37.9901   62.2934 H   0  0  0  0  0  0  0  0  0  0  0  0
   30.6035   38.0488   61.2268 H   0  0  0  0  0  0  0  0  0  0  0  0
  1  2  1  0  0  0  0
  1 19  1  0  0  0  0
  1 20  1  0  0  0  0
  1 21  1  0  0  0  0
  2  3  1  0  0  0  0
  2  4  1  0  0  0  0
  3 22  1  0  0  0  0
  3 23  1  0  0  0  0
  3 24  1  0  0  0  0
  4  5  2  0  0  0  0
  4  6  2  0  0  0  0
  4  7  1  0  0  0  0
  7 18  1  0  0  0  0
  7  8  1  0  0  0  0
  8  9  1  0  0  0  0
  8 25  1  0  0  0  0
  8 26  1  0  0  0  0
  9 10  1  0  0  0  0
  9 27  1  0  0  0  0
  9 28  1  0  0  0  0
 10 11  1  0  0  0  0
 10 17  1  0  0  0  0
 11 16  2  0  0  0  0
 11 12  1  0  0  0  0
 12 13  2  0  0  0  0
 13 14  1  0  0  0  0
 13 29  1  0  0  0  0
 14 15  2  0  0  0  0
 14 30  1  0  0  0  0
 15 16  1  0  0  0  0
 15 31  1  0  0  0  0
 17 18  1  0  0  0  0
 17 32  1  0  0  0  0
 17 33  1  0  0  0  0
 18 34  1  0  0  0  0
 18 35  1  0  0  0  0
M  END
$$$$
