ZINC000000027603      none
 OpenBabel11202420153D

 34 37  0  0  1  0  0  0  0  0999 V2000
   32.2355   37.8099   60.2603 O   0  0  0  0  0  0  0  0  0  0  0  0
   32.2350   36.6563   59.8863 C   0  0  0  0  0  0  0  0  0  0  0  0
   31.7815   35.5622   60.8182 C   0  0  2  0  0  0  0  0  0  0  0  0
   32.5622   35.1151   61.4337 H   0  0  0  0  0  0  0  0  0  0  0  0
   30.6475   34.6509   60.3405 C   0  0  0  0  0  0  0  0  0  0  0  0
   30.3897   35.6881   61.4276 C   0  0  0  0  0  0  0  0  0  0  0  0
   29.9588   35.4625   62.8809 C   0  0  0  0  0  0  0  0  0  0  0  0
   29.6154   36.9619   62.9237 C   0  0  0  0  0  0  0  0  0  0  0  0
   29.4383   36.8913   61.3966 C   0  0  0  0  0  0  0  0  0  0  0  0
   32.6399   36.3525   58.6371 N   0  0  0  0  0  0  0  0  0  0  0  0
   32.6775   35.0013   58.0715 C   0  0  0  0  0  0  0  0  0  0  0  0
   33.2052   35.1788   56.6384 C   0  0  0  0  0  0  0  0  0  0  0  0
   33.4334   36.6671   56.4984 C   0  0  0  0  0  0  0  0  0  0  0  0
   33.8992   37.4163   55.4348 C   0  0  0  0  0  0  0  0  0  0  0  0
   34.0223   38.7880   55.5527 C   0  0  0  0  0  0  0  0  0  0  0  0
   33.6778   39.4099   56.7389 C   0  0  0  0  0  0  0  0  0  0  0  0
   33.2123   38.6668   57.8025 C   0  0  0  0  0  0  0  0  0  0  0  0
   33.0800   37.2814   57.6890 C   0  0  0  0  0  0  0  0  0  0  0  0
   30.6822   33.6038   60.6414 H   0  0  0  0  0  0  0  0  0  0  0  0
   30.2298   34.8428   59.3521 H   0  0  0  0  0  0  0  0  0  0  0  0
   30.7792   35.1829   63.5419 H   0  0  0  0  0  0  0  0  0  0  0  0
   29.0903   34.8120   62.9849 H   0  0  0  0  0  0  0  0  0  0  0  0
   28.6924   37.1830   63.4598 H   0  0  0  0  0  0  0  0  0  0  0  0
   30.4480   37.5914   63.2375 H   0  0  0  0  0  0  0  0  0  0  0  0
   28.4246   36.6392   61.0852 H   0  0  0  0  0  0  0  0  0  0  0  0
   29.8421   37.7556   60.8692 H   0  0  0  0  0  0  0  0  0  0  0  0
   33.3530   34.3689   58.6475 H   0  0  0  0  0  0  0  0  0  0  0  0
   31.6765   34.5703   58.0550 H   0  0  0  0  0  0  0  0  0  0  0  0
   34.1418   34.6367   56.5082 H   0  0  0  0  0  0  0  0  0  0  0  0
   32.4641   34.8382   55.9154 H   0  0  0  0  0  0  0  0  0  0  0  0
   34.1681   36.9289   54.5093 H   0  0  0  0  0  0  0  0  0  0  0  0
   34.3868   39.3724   54.7210 H   0  0  0  0  0  0  0  0  0  0  0  0
   33.7736   40.4816   56.8322 H   0  0  0  0  0  0  0  0  0  0  0  0
   32.9446   39.1587   58.7259 H   0  0  0  0  0  0  0  0  0  0  0  0
  1  2  2  0  0  0  0
  2  3  1  0  0  0  0
  2 10  1  0  0  0  0
  3  4  1  1  0  0  0
  3  6  1  0  0  0  0
  3  5  1  0  0  0  0
  5  6  1  0  0  0  0
  5 19  1  0  0  0  0
  5 20  1  0  0  0  0
  6  9  1  0  0  0  0
  6  7  1  0  0  0  0
  7  8  1  0  0  0  0
  7 21  1  0  0  0  0
  7 22  1  0  0  0  0
  8  9  1  0  0  0  0
  8 23  1  0  0  0  0
  8 24  1  0  0  0  0
  9 25  1  0  0  0  0
  9 26  1  0  0  0  0
 10 18  1  0  0  0  0
 10 11  1  0  0  0  0
 11 12  1  0  0  0  0
 11 27  1  0  0  0  0
 11 28  1  0  0  0  0
 12 13  1  0  0  0  0
 12 29  1  0  0  0  0
 12 30  1  0  0  0  0
 13 18  2  0  0  0  0
 13 14  1  0  0  0  0
 14 15  2  0  0  0  0
 14 31  1  0  0  0  0
 15 16  1  0  0  0  0
 15 32  1  0  0  0  0
 16 17  2  0  0  0  0
 16 33  1  0  0  0  0
 17 18  1  0  0  0  0
 17 34  1  0  0  0  0
M  END
$$$$
