ZINC000000030266      none
 OpenBabel11202420163D

 35 36  0  0  0  0  0  0  0  0999 V2000
   32.6299   32.9269   56.1933 C   0  0  0  0  0  0  0  0  0  0  0  0
   33.8681   33.8095   56.3619 C   0  0  0  0  0  0  0  0  0  0  0  0
   33.4979   35.2132   56.1648 N   0  0  0  0  0  0  0  0  0  0  0  0
   33.1009   35.9592   57.2147 C   0  0  0  0  0  0  0  0  0  0  0  0
   33.0501   35.4671   58.3254 O   0  0  0  0  0  0  0  0  0  0  0  0
   32.7602   37.2505   57.0334 N   0  0  0  0  0  0  0  0  0  0  0  0
   32.3179   38.0830   58.1632 C   0  0  0  0  0  0  0  0  0  0  0  0
   33.1359   39.3843   58.1486 C   0  0  0  0  0  0  0  0  0  0  0  0
   33.0494   39.9781   56.8511 O   0  0  0  0  0  0  0  0  0  0  0  0
   33.6026   39.1781   55.8033 C   0  0  0  0  0  0  0  0  0  0  0  0
   32.8138   37.8678   55.6987 C   0  0  0  0  0  0  0  0  0  0  0  0
   33.5565   35.7794   54.8863 C   0  0  0  0  0  0  0  0  0  0  0  0
   34.7245   36.3896   54.4484 C   0  0  0  0  0  0  0  0  0  0  0  0
   34.7772   36.9529   53.1886 C   0  0  0  0  0  0  0  0  0  0  0  0
   33.6719   36.9002   52.3593 C   0  0  0  0  0  0  0  0  0  0  0  0
   32.5075   36.2927   52.7921 C   0  0  0  0  0  0  0  0  0  0  0  0
   32.4466   35.7327   54.0532 C   0  0  0  0  0  0  0  0  0  0  0  0
   32.2238   33.0581   55.1903 H   0  0  0  0  0  0  0  0  0  0  0  0
   32.9054   31.8824   56.3399 H   0  0  0  0  0  0  0  0  0  0  0  0
   31.8781   33.2110   56.9297 H   0  0  0  0  0  0  0  0  0  0  0  0
   34.6200   33.5253   55.6255 H   0  0  0  0  0  0  0  0  0  0  0  0
   34.2742   33.6782   57.3648 H   0  0  0  0  0  0  0  0  0  0  0  0
   31.2573   38.3116   58.0576 H   0  0  0  0  0  0  0  0  0  0  0  0
   32.4880   37.5515   59.0996 H   0  0  0  0  0  0  0  0  0  0  0  0
   34.1783   39.1647   58.3799 H   0  0  0  0  0  0  0  0  0  0  0  0
   32.7356   40.0738   58.8920 H   0  0  0  0  0  0  0  0  0  0  0  0
   34.6466   38.9578   56.0259 H   0  0  0  0  0  0  0  0  0  0  0  0
   33.5380   39.7184   54.8588 H   0  0  0  0  0  0  0  0  0  0  0  0
   33.3125   37.1938   55.0022 H   0  0  0  0  0  0  0  0  0  0  0  0
   31.8024   38.0750   55.3492 H   0  0  0  0  0  0  0  0  0  0  0  0
   35.5895   36.4275   55.0942 H   0  0  0  0  0  0  0  0  0  0  0  0
   35.6838   37.4319   52.8493 H   0  0  0  0  0  0  0  0  0  0  0  0
   33.7170   37.3377   51.3729 H   0  0  0  0  0  0  0  0  0  0  0  0
   31.6447   36.2568   52.1436 H   0  0  0  0  0  0  0  0  0  0  0  0
   31.5366   35.2591   54.3909 H   0  0  0  0  0  0  0  0  0  0  0  0
  1  2  1  0  0  0  0
  1 18  1  0  0  0  0
  1 19  1  0  0  0  0
  1 20  1  0  0  0  0
  2  3  1  0  0  0  0
  2 21  1  0  0  0  0
  2 22  1  0  0  0  0
  3  4  1  0  0  0  0
  3 12  1  0  0  0  0
  4  5  2  0  0  0  0
  4  6  1  0  0  0  0
  6 11  1  0  0  0  0
  6  7  1  0  0  0  0
  7  8  1  0  0  0  0
  7 23  1  0  0  0  0
  7 24  1  0  0  0  0
  8  9  1  0  0  0  0
  8 25  1  0  0  0  0
  8 26  1  0  0  0  0
  9 10  1  0  0  0  0
 10 11  1  0  0  0  0
 10 27  1  0  0  0  0
 10 28  1  0  0  0  0
 11 29  1  0  0  0  0
 11 30  1  0  0  0  0
 12 17  2  0  0  0  0
 12 13  1  0  0  0  0
 13 14  2  0  0  0  0
 13 31  1  0  0  0  0
 14 15  1  0  0  0  0
 14 32  1  0  0  0  0
 15 16  2  0  0  0  0
 15 33  1  0  0  0  0
 16 17  1  0  0  0  0
 16 34  1  0  0  0  0
 17 35  1  0  0  0  0
M  END
$$$$
