ZINC000000040347      none
 OpenBabel11202420153D

 33 34  0  0  0  0  0  0  0  0999 V2000
   31.5312   37.4026   63.2542 C   0  0  0  0  0  0  0  0  0  0  0  0
   30.6070   37.7232   62.0778 C   0  0  0  0  0  0  0  0  0  0  0  0
   31.3871   37.6464   60.7908 C   0  0  0  0  0  0  0  0  0  0  0  0
   32.0250   38.6213   60.2248 N   0  0  0  0  0  0  0  0  0  0  0  0
   32.6213   38.3543   59.1444 N   0  0  0  0  0  0  0  0  0  0  0  0
   32.5444   37.1370   58.6980 C   0  0  0  0  0  0  0  0  0  0  0  0
   33.1335   36.6629   57.5309 N   0  0  0  0  0  0  0  0  0  0  0  0
   32.9792   35.3722   57.1744 C   0  0  0  0  0  0  0  0  0  0  0  0
   32.3268   34.6245   57.8715 O   0  0  0  0  0  0  0  0  0  0  0  0
   33.6175   34.8585   55.9096 C   0  0  0  0  0  0  0  0  0  0  0  0
   33.0761   35.6404   54.7111 C   0  0  0  0  0  0  0  0  0  0  0  0
   33.7241   35.1187   53.4270 C   0  0  0  0  0  0  0  0  0  0  0  0
   33.3967   33.6339   53.2573 C   0  0  0  0  0  0  0  0  0  0  0  0
   33.9380   32.8519   54.4558 C   0  0  0  0  0  0  0  0  0  0  0  0
   33.2900   33.3736   55.7399 C   0  0  0  0  0  0  0  0  0  0  0  0
   31.5962   36.2126   59.7848 S   0  0  0  0  0  0  0  0  0  0  0  0
   30.9669   37.4581   64.1851 H   0  0  0  0  0  0  0  0  0  0  0  0
   31.9367   36.3979   63.1345 H   0  0  0  0  0  0  0  0  0  0  0  0
   32.3483   38.1234   63.2812 H   0  0  0  0  0  0  0  0  0  0  0  0
   30.2015   38.7277   62.1976 H   0  0  0  0  0  0  0  0  0  0  0  0
   29.7898   37.0022   62.0508 H   0  0  0  0  0  0  0  0  0  0  0  0
   33.6554   37.2609   56.9734 H   0  0  0  0  0  0  0  0  0  0  0  0
   34.6982   34.9876   55.9696 H   0  0  0  0  0  0  0  0  0  0  0  0
   31.9955   35.5113   54.6511 H   0  0  0  0  0  0  0  0  0  0  0  0
   33.3095   36.6982   54.8321 H   0  0  0  0  0  0  0  0  0  0  0  0
   34.8049   35.2479   53.4869 H   0  0  0  0  0  0  0  0  0  0  0  0
   33.3384   35.6757   52.5732 H   0  0  0  0  0  0  0  0  0  0  0  0
   33.8582   33.2622   52.3425 H   0  0  0  0  0  0  0  0  0  0  0  0
   32.3159   33.5047   53.1973 H   0  0  0  0  0  0  0  0  0  0  0  0
   35.0187   32.9811   54.5158 H   0  0  0  0  0  0  0  0  0  0  0  0
   33.7046   31.7942   54.3349 H   0  0  0  0  0  0  0  0  0  0  0  0
   33.6757   32.8166   56.5937 H   0  0  0  0  0  0  0  0  0  0  0  0
   32.2093   33.2444   55.6799 H   0  0  0  0  0  0  0  0  0  0  0  0
  1  2  1  0  0  0  0
  1 17  1  0  0  0  0
  1 18  1  0  0  0  0
  1 19  1  0  0  0  0
  2  3  1  0  0  0  0
  2 20  1  0  0  0  0
  2 21  1  0  0  0  0
  3 16  1  0  0  0  0
  3  4  2  0  0  0  0
  4  5  1  0  0  0  0
  5  6  2  0  0  0  0
  6  7  1  0  0  0  0
  6 16  1  0  0  0  0
  7  8  1  0  0  0  0
  7 22  1  0  0  0  0
  8  9  2  0  0  0  0
  8 10  1  0  0  0  0
 10 15  1  0  0  0  0
 10 11  1  0  0  0  0
 10 23  1  0  0  0  0
 11 12  1  0  0  0  0
 11 24  1  0  0  0  0
 11 25  1  0  0  0  0
 12 13  1  0  0  0  0
 12 26  1  0  0  0  0
 12 27  1  0  0  0  0
 13 14  1  0  0  0  0
 13 28  1  0  0  0  0
 13 29  1  0  0  0  0
 14 15  1  0  0  0  0
 14 30  1  0  0  0  0
 14 31  1  0  0  0  0
 15 32  1  0  0  0  0
 15 33  1  0  0  0  0
M  END
$$$$
