ZINC000000029310      none
 OpenBabel11202420163D

 36 38  0  0  0  0  0  0  0  0999 V2000
   32.6137   36.8281   65.3312 C   0  0  0  0  0  0  0  0  0  0  0  0
   32.0148   35.7718   64.4386 C   0  0  0  0  0  0  0  0  0  0  0  0
   30.9315   35.0307   64.8768 C   0  0  0  0  0  0  0  0  0  0  0  0
   30.3761   34.0589   64.0639 C   0  0  0  0  0  0  0  0  0  0  0  0
   30.9001   33.8222   62.8096 C   0  0  0  0  0  0  0  0  0  0  0  0
   31.9926   34.5661   62.3615 C   0  0  0  0  0  0  0  0  0  0  0  0
   32.5595   34.3177   61.0189 C   0  0  0  0  0  0  0  0  0  0  0  0
   33.4475   33.5000   60.8759 O   0  0  0  0  0  0  0  0  0  0  0  0
   32.0917   34.9975   59.9534 N   0  0  0  0  0  0  0  0  0  0  0  0
   31.0180   35.9941   60.0918 C   0  0  0  0  0  0  0  0  0  0  0  0
   31.5933   37.3603   59.7218 C   0  0  0  0  0  0  0  0  0  0  0  0
   32.3710   37.2829   58.4344 C   0  0  0  0  0  0  0  0  0  0  0  0
   32.5987   38.4693   57.7471 C   0  0  0  0  0  0  0  0  0  0  0  0
   33.3104   38.4703   56.5658 C   0  0  0  0  0  0  0  0  0  0  0  0
   33.8041   37.2823   56.0594 C   0  0  0  0  0  0  0  0  0  0  0  0
   33.5774   36.1028   56.7382 C   0  0  0  0  0  0  0  0  0  0  0  0
   32.8569   36.0999   57.9249 C   0  0  0  0  0  0  0  0  0  0  0  0
   32.6326   34.7743   58.6082 C   0  0  0  0  0  0  0  0  0  0  0  0
   32.5512   35.5419   63.1888 C   0  0  0  0  0  0  0  0  0  0  0  0
   33.3974   36.3836   65.9446 H   0  0  0  0  0  0  0  0  0  0  0  0
   33.0386   37.6232   64.7186 H   0  0  0  0  0  0  0  0  0  0  0  0
   31.8380   37.2414   65.9759 H   0  0  0  0  0  0  0  0  0  0  0  0
   30.5180   35.2115   65.8580 H   0  0  0  0  0  0  0  0  0  0  0  0
   29.5306   33.4839   64.4119 H   0  0  0  0  0  0  0  0  0  0  0  0
   30.4656   33.0634   62.1759 H   0  0  0  0  0  0  0  0  0  0  0  0
   30.6620   36.0105   61.1218 H   0  0  0  0  0  0  0  0  0  0  0  0
   30.1959   35.7461   59.4205 H   0  0  0  0  0  0  0  0  0  0  0  0
   32.2539   37.6993   60.5199 H   0  0  0  0  0  0  0  0  0  0  0  0
   30.7771   38.0733   59.6051 H   0  0  0  0  0  0  0  0  0  0  0  0
   32.2142   39.3984   58.1411 H   0  0  0  0  0  0  0  0  0  0  0  0
   33.4812   39.3966   56.0375 H   0  0  0  0  0  0  0  0  0  0  0  0
   34.3645   37.2777   55.1362 H   0  0  0  0  0  0  0  0  0  0  0  0
   33.9631   35.1746   56.3432 H   0  0  0  0  0  0  0  0  0  0  0  0
   31.9263   34.1815   58.0270 H   0  0  0  0  0  0  0  0  0  0  0  0
   33.5797   34.2399   58.6828 H   0  0  0  0  0  0  0  0  0  0  0  0
   33.3995   36.1180   62.8497 H   0  0  0  0  0  0  0  0  0  0  0  0
  1  2  1  0  0  0  0
  1 20  1  0  0  0  0
  1 21  1  0  0  0  0
  1 22  1  0  0  0  0
  2 19  2  0  0  0  0
  2  3  1  0  0  0  0
  3  4  2  0  0  0  0
  3 23  1  0  0  0  0
  4  5  1  0  0  0  0
  4 24  1  0  0  0  0
  5  6  2  0  0  0  0
  5 25  1  0  0  0  0
  6  7  1  0  0  0  0
  6 19  1  0  0  0  0
  7  8  2  0  0  0  0
  7  9  1  0  0  0  0
  9 18  1  0  0  0  0
  9 10  1  0  0  0  0
 10 11  1  0  0  0  0
 10 26  1  0  0  0  0
 10 27  1  0  0  0  0
 11 12  1  0  0  0  0
 11 28  1  0  0  0  0
 11 29  1  0  0  0  0
 12 17  2  0  0  0  0
 12 13  1  0  0  0  0
 13 14  2  0  0  0  0
 13 30  1  0  0  0  0
 14 15  1  0  0  0  0
 14 31  1  0  0  0  0
 15 16  2  0  0  0  0
 15 32  1  0  0  0  0
 16 17  1  0  0  0  0
 16 33  1  0  0  0  0
 17 18  1  0  0  0  0
 18 34  1  0  0  0  0
 18 35  1  0  0  0  0
 19 36  1  0  0  0  0
M  END
$$$$
