ZINC000000028457      none
 OpenBabel11202420163D

 30 33  0  0  1  0  0  0  0  0999 V2000
   33.8205   36.9003   64.5298 O   0  0  0  0  0  0  0  0  0  0  0  0
   32.6468   36.7402   64.2611 C   0  0  0  0  0  0  0  0  0  0  0  0
   31.6871   36.4456   65.1539 O   0  0  0  0  0  0  0  0  0  0  0  0
   30.4143   36.3312   64.4607 C   0  0  1  0  0  0  0  0  0  0  0  0
   30.0071   35.3280   64.5876 H   0  0  0  0  0  0  0  0  0  0  0  0
   29.4280   37.3695   64.9991 C   0  0  2  0  0  0  0  0  0  0  0  0
   28.4738   37.2835   64.4792 H   0  0  0  0  0  0  0  0  0  0  0  0
   29.9706   38.7077   64.8299 O   0  0  0  0  0  0  0  0  0  0  0  0
   30.0990   39.2838   66.0369 C   0  0  0  0  0  0  0  0  0  0  0  0
   30.5259   40.4044   66.2302 O   0  0  0  0  0  0  0  0  0  0  0  0
   29.6469   38.3595   67.0928 C   0  0  0  0  0  0  0  0  0  0  0  0
   29.5784   38.4749   68.4825 C   0  0  0  0  0  0  0  0  0  0  0  0
   29.1012   37.4220   69.2351 C   0  0  0  0  0  0  0  0  0  0  0  0
   28.6900   36.2529   68.6192 C   0  0  0  0  0  0  0  0  0  0  0  0
   28.7547   36.1310   67.2412 C   0  0  0  0  0  0  0  0  0  0  0  0
   29.2291   37.1745   66.4811 C   0  0  0  0  0  0  0  0  0  0  0  0
   30.6979   36.5938   63.0031 C   0  0  0  0  0  0  0  0  0  0  0  0
   29.9074   36.6254   61.8779 C   0  0  0  0  0  0  0  0  0  0  0  0
   30.4717   36.9035   60.6441 C   0  0  0  0  0  0  0  0  0  0  0  0
   31.8296   37.1493   60.5388 C   0  0  0  0  0  0  0  0  0  0  0  0
   32.6317   37.1203   61.6608 C   0  0  0  0  0  0  0  0  0  0  0  0
   32.0700   36.8413   62.9081 C   0  0  0  0  0  0  0  0  0  0  0  0
   29.8981   39.3858   68.9668 H   0  0  0  0  0  0  0  0  0  0  0  0
   29.0478   37.5105   70.3101 H   0  0  0  0  0  0  0  0  0  0  0  0
   28.3131   35.4346   69.2147 H   0  0  0  0  0  0  0  0  0  0  0  0
   28.4332   35.2172   66.7637 H   0  0  0  0  0  0  0  0  0  0  0  0
   28.8476   36.4333   61.9564 H   0  0  0  0  0  0  0  0  0  0  0  0
   29.8503   36.9280   59.7612 H   0  0  0  0  0  0  0  0  0  0  0  0
   32.2635   37.3648   59.5736 H   0  0  0  0  0  0  0  0  0  0  0  0
   33.6910   37.3124   61.5744 H   0  0  0  0  0  0  0  0  0  0  0  0
  1  2  2  0  0  0  0
  2 22  1  0  0  0  0
  2  3  1  0  0  0  0
  3  4  1  0  0  0  0
  4  5  1  1  0  0  0
  4  6  1  0  0  0  0
  4 17  1  0  0  0  0
  6  7  1  6  0  0  0
  6 16  1  0  0  0  0
  6  8  1  0  0  0  0
  8  9  1  0  0  0  0
  9 10  2  0  0  0  0
  9 11  1  0  0  0  0
 11 16  2  0  0  0  0
 11 12  1  0  0  0  0
 12 13  2  0  0  0  0
 12 23  1  0  0  0  0
 13 14  1  0  0  0  0
 13 24  1  0  0  0  0
 14 15  2  0  0  0  0
 14 25  1  0  0  0  0
 15 16  1  0  0  0  0
 15 26  1  0  0  0  0
 17 22  2  0  0  0  0
 17 18  1  0  0  0  0
 18 19  2  0  0  0  0
 18 27  1  0  0  0  0
 19 20  1  0  0  0  0
 19 28  1  0  0  0  0
 20 21  2  0  0  0  0
 20 29  1  0  0  0  0
 21 22  1  0  0  0  0
 21 30  1  0  0  0  0
M  END
$$$$
