ZINC000000031811      none
 OpenBabel11202420163D

 31 32  0  0  0  0  0  0  0  0999 V2000
   31.9498   37.6126   61.1977 C   0  0  0  0  0  0  0  0  0  0  0  0
   32.4674   38.6860   60.4089 O   0  0  0  0  0  0  0  0  0  0  0  0
   32.8319   38.3941   59.1352 C   0  0  0  0  0  0  0  0  0  0  0  0
   33.3428   39.3939   58.3143 C   0  0  0  0  0  0  0  0  0  0  0  0
   33.7120   39.1044   57.0258 C   0  0  0  0  0  0  0  0  0  0  0  0
   33.5741   37.7993   56.5371 C   0  0  0  0  0  0  0  0  0  0  0  0
   33.9680   37.4836   55.1580 C   0  0  0  0  0  0  0  0  0  0  0  0
   33.8898   38.3328   54.2954 O   0  0  0  0  0  0  0  0  0  0  0  0
   34.4693   36.1046   54.8144 C   0  0  0  0  0  0  0  0  0  0  0  0
   33.0702   35.0550   54.3332 S   0  0  0  0  0  0  0  0  0  0  0  0
   33.8386   33.5106   53.9739 C   0  0  0  0  0  0  0  0  0  0  0  0
   34.5556   32.8493   54.9669 C   0  0  0  0  0  0  0  0  0  0  0  0
   35.1532   31.6380   54.6711 C   0  0  0  0  0  0  0  0  0  0  0  0
   35.0139   31.1258   53.3874 C   0  0  0  0  0  0  0  0  0  0  0  0
   34.2930   31.8375   52.4499 C   0  0  0  0  0  0  0  0  0  0  0  0
   33.7283   32.9887   52.7615 N   0  0  0  0  0  0  0  0  0  0  0  0
   33.0542   36.7975   57.3661 C   0  0  0  0  0  0  0  0  0  0  0  0
   32.6931   37.0964   58.6547 C   0  0  0  0  0  0  0  0  0  0  0  0
   31.0553   37.2106   60.7218 H   0  0  0  0  0  0  0  0  0  0  0  0
   32.7013   36.8275   61.2806 H   0  0  0  0  0  0  0  0  0  0  0  0
   31.6980   37.9811   62.1921 H   0  0  0  0  0  0  0  0  0  0  0  0
   33.4487   40.4000   58.6922 H   0  0  0  0  0  0  0  0  0  0  0  0
   34.1079   39.8816   56.3890 H   0  0  0  0  0  0  0  0  0  0  0  0
   34.9663   35.6720   55.6827 H   0  0  0  0  0  0  0  0  0  0  0  0
   35.1756   36.1704   53.9869 H   0  0  0  0  0  0  0  0  0  0  0  0
   34.6442   33.2766   55.9549 H   0  0  0  0  0  0  0  0  0  0  0  0
   35.7156   31.1020   55.4215 H   0  0  0  0  0  0  0  0  0  0  0  0
   35.4690   30.1824   53.1243 H   0  0  0  0  0  0  0  0  0  0  0  0
   34.1861   31.4449   51.4495 H   0  0  0  0  0  0  0  0  0  0  0  0
   32.9415   35.7905   56.9924 H   0  0  0  0  0  0  0  0  0  0  0  0
   32.2959   36.3236   59.2962 H   0  0  0  0  0  0  0  0  0  0  0  0
  1  2  1  0  0  0  0
  1 19  1  0  0  0  0
  1 20  1  0  0  0  0
  1 21  1  0  0  0  0
  2  3  1  0  0  0  0
  3 18  2  0  0  0  0
  3  4  1  0  0  0  0
  4  5  2  0  0  0  0
  4 22  1  0  0  0  0
  5  6  1  0  0  0  0
  5 23  1  0  0  0  0
  6  7  1  0  0  0  0
  6 17  2  0  0  0  0
  7  8  2  0  0  0  0
  7  9  1  0  0  0  0
  9 10  1  0  0  0  0
  9 24  1  0  0  0  0
  9 25  1  0  0  0  0
 10 11  1  0  0  0  0
 11 16  2  0  0  0  0
 11 12  1  0  0  0  0
 12 13  2  0  0  0  0
 12 26  1  0  0  0  0
 13 14  1  0  0  0  0
 13 27  1  0  0  0  0
 14 15  2  0  0  0  0
 14 28  1  0  0  0  0
 15 16  1  0  0  0  0
 15 29  1  0  0  0  0
 17 18  1  0  0  0  0
 17 30  1  0  0  0  0
 18 31  1  0  0  0  0
M  END
$$$$
