ZINC000000003776      none
 OpenBabel11202420153D

 22 23  0  0  0  0  0  0  0  0999 V2000
   33.3477   36.7145   56.5934 F   0  0  0  0  0  0  0  0  0  0  0  0
   32.8859   37.1689   57.7789 C   0  0  0  0  0  0  0  0  0  0  0  0
   33.0173   38.5080   58.1064 C   0  0  0  0  0  0  0  0  0  0  0  0
   32.5498   38.9706   59.3216 C   0  0  0  0  0  0  0  0  0  0  0  0
   31.9411   38.0991   60.2059 C   0  0  0  0  0  0  0  0  0  0  0  0
   31.8043   36.7634   59.8777 C   0  0  0  0  0  0  0  0  0  0  0  0
   31.1403   35.8149   60.8423 C   0  0  0  0  0  0  0  0  0  0  0  0
   31.6544   36.0531   62.1932 N   0  0  0  0  0  0  0  0  0  0  0  0
   32.9983   36.2266   62.5522 N   0  0  0  0  0  0  0  0  0  0  0  0
   33.0523   36.4153   63.8314 C   0  0  0  0  0  0  0  0  0  0  0  0
   31.7783   36.3639   64.3413 N   0  0  0  0  0  0  0  0  0  0  0  0
   31.5355   36.4705   65.2744 H   0  0  0  0  0  0  0  0  0  0  0  0
   30.9228   36.1403   63.3237 C   0  0  0  0  0  0  0  0  0  0  0  0
   29.2213   35.9937   63.4437 S   0  0  0  0  0  0  0  0  0  0  0  0
   32.2760   36.2974   58.6649 C   0  0  0  0  0  0  0  0  0  0  0  0
   33.4884   39.1899   57.4139 H   0  0  0  0  0  0  0  0  0  0  0  0
   32.6557   40.0141   59.5790 H   0  0  0  0  0  0  0  0  0  0  0  0
   31.5719   38.4624   61.1535 H   0  0  0  0  0  0  0  0  0  0  0  0
   30.0628   35.9787   60.8294 H   0  0  0  0  0  0  0  0  0  0  0  0
   31.3550   34.7876   60.5477 H   0  0  0  0  0  0  0  0  0  0  0  0
   33.9525   36.5815   64.4046 H   0  0  0  0  0  0  0  0  0  0  0  0
   32.1690   35.2537   58.4086 H   0  0  0  0  0  0  0  0  0  0  0  0
  1  2  1  0  0  0  0
  2 15  2  0  0  0  0
  2  3  1  0  0  0  0
  3  4  2  0  0  0  0
  3 16  1  0  0  0  0
  4  5  1  0  0  0  0
  4 17  1  0  0  0  0
  5  6  2  0  0  0  0
  5 18  1  0  0  0  0
  6  7  1  0  0  0  0
  6 15  1  0  0  0  0
  7  8  1  0  0  0  0
  7 19  1  0  0  0  0
  7 20  1  0  0  0  0
  8 13  1  0  0  0  0
  8  9  1  0  0  0  0
  9 10  2  0  0  0  0
 10 11  1  0  0  0  0
 10 21  1  0  0  0  0
 11 12  1  0  0  0  0
 11 13  1  0  0  0  0
 13 14  2  0  0  0  0
 15 22  1  0  0  0  0
M  END
$$$$
