ZINC000000029553      none
 OpenBabel11202420163D

 29 29  0  0  0  0  0  0  0  0999 V2000
   31.5733   35.4040   63.8331 C   0  0  0  0  0  0  0  0  0  0  0  0
   32.1223   36.8086   64.0918 C   0  0  0  0  0  0  0  0  0  0  0  0
   33.4063   36.7100   64.9180 C   0  0  0  0  0  0  0  0  0  0  0  0
   31.0835   37.6286   64.8595 C   0  0  0  0  0  0  0  0  0  0  0  0
   32.4132   37.4624   62.8135 N   0  0  0  0  0  0  0  0  0  0  0  0
   31.2004   37.7035   61.7120 S   0  0  0  0  0  0  0  0  0  0  0  0
   30.7889   39.0559   61.8578 O   0  0  0  0  0  0  0  0  0  0  0  0
   30.3123   36.6022   61.8455 O   0  0  0  0  0  0  0  0  0  0  0  0
   31.9184   37.5721   60.1084 C   0  0  0  0  0  0  0  0  0  0  0  0
   32.4336   38.6950   59.4881 C   0  0  0  0  0  0  0  0  0  0  0  0
   32.9910   38.5943   58.2275 C   0  0  0  0  0  0  0  0  0  0  0  0
   33.0444   37.3660   57.5909 C   0  0  0  0  0  0  0  0  0  0  0  0
   33.5945   37.2652   56.3611 F   0  0  0  0  0  0  0  0  0  0  0  0
   32.5337   36.2408   58.2157 C   0  0  0  0  0  0  0  0  0  0  0  0
   31.9715   36.3450   59.4739 C   0  0  0  0  0  0  0  0  0  0  0  0
   32.1913   34.9042   63.0872 H   0  0  0  0  0  0  0  0  0  0  0  0
   31.5885   34.8315   64.7604 H   0  0  0  0  0  0  0  0  0  0  0  0
   30.5491   35.4760   63.4672 H   0  0  0  0  0  0  0  0  0  0  0  0
   33.7974   37.7106   65.1023 H   0  0  0  0  0  0  0  0  0  0  0  0
   33.1899   36.2236   65.8692 H   0  0  0  0  0  0  0  0  0  0  0  0
   34.1463   36.1257   64.3712 H   0  0  0  0  0  0  0  0  0  0  0  0
   30.1231   37.5691   64.3476 H   0  0  0  0  0  0  0  0  0  0  0  0
   30.9821   37.2325   65.8698 H   0  0  0  0  0  0  0  0  0  0  0  0
   31.4055   38.6690   64.9077 H   0  0  0  0  0  0  0  0  0  0  0  0
   33.3161   37.7540   62.6122 H   0  0  0  0  0  0  0  0  0  0  0  0
   32.3963   39.6522   59.9868 H   0  0  0  0  0  0  0  0  0  0  0  0
   33.3890   39.4726   57.7411 H   0  0  0  0  0  0  0  0  0  0  0  0
   32.5751   35.2820   57.7201 H   0  0  0  0  0  0  0  0  0  0  0  0
   31.5732   35.4675   59.9614 H   0  0  0  0  0  0  0  0  0  0  0  0
  1  2  1  0  0  0  0
  1 16  1  0  0  0  0
  1 17  1  0  0  0  0
  1 18  1  0  0  0  0
  2  3  1  0  0  0  0
  2  4  1  0  0  0  0
  2  5  1  0  0  0  0
  3 19  1  0  0  0  0
  3 20  1  0  0  0  0
  3 21  1  0  0  0  0
  4 22  1  0  0  0  0
  4 23  1  0  0  0  0
  4 24  1  0  0  0  0
  5  6  1  0  0  0  0
  5 25  1  0  0  0  0
  6  7  2  0  0  0  0
  6  8  2  0  0  0  0
  6  9  1  0  0  0  0
  9 15  2  0  0  0  0
  9 10  1  0  0  0  0
 10 11  2  0  0  0  0
 10 26  1  0  0  0  0
 11 12  1  0  0  0  0
 11 27  1  0  0  0  0
 12 13  1  0  0  0  0
 12 14  2  0  0  0  0
 14 15  1  0  0  0  0
 14 28  1  0  0  0  0
 15 29  1  0  0  0  0
M  END
$$$$
