ZINC000000027315      none
 OpenBabel11202420153D

 17 18  0  0  0  0  0  0  0  0999 V2000
   33.9152   38.8209   56.3028 C   0  0  0  0  0  0  0  0  0  0  0  0
   33.8005   39.8216   57.2581 C   0  0  0  0  0  0  0  0  0  0  0  0
   33.0873   39.5538   58.4130 C   0  0  0  0  0  0  0  0  0  0  0  0
   32.5116   38.2952   58.5767 C   0  0  0  0  0  0  0  0  0  0  0  0
   31.7438   37.9921   59.8091 C   0  0  0  0  0  0  0  0  0  0  0  0
   31.1180   36.8183   60.1178 C   0  0  0  0  0  0  0  0  0  0  0  0
   30.5554   37.0031   61.3323 N   0  0  0  0  0  0  0  0  0  0  0  0
   30.0402   36.3447   61.8240 H   0  0  0  0  0  0  0  0  0  0  0  0
   30.8138   38.2007   61.7246 N   0  0  0  0  0  0  0  0  0  0  0  0
   31.5188   38.8204   60.8453 N   0  0  0  0  0  0  0  0  0  0  0  0
   32.6452   37.3658   57.6396 N   0  0  0  0  0  0  0  0  0  0  0  0
   33.3192   37.5951   56.5304 C   0  0  0  0  0  0  0  0  0  0  0  0
   34.4652   38.9987   55.3904 H   0  0  0  0  0  0  0  0  0  0  0  0
   34.2580   40.7876   57.1033 H   0  0  0  0  0  0  0  0  0  0  0  0
   32.9784   40.3094   59.1770 H   0  0  0  0  0  0  0  0  0  0  0  0
   31.0817   35.9233   59.5145 H   0  0  0  0  0  0  0  0  0  0  0  0
   33.4070   36.8143   55.7893 H   0  0  0  0  0  0  0  0  0  0  0  0
  1 12  2  0  0  0  0
  1  2  1  0  0  0  0
  1 13  1  0  0  0  0
  2  3  2  0  0  0  0
  2 14  1  0  0  0  0
  3  4  1  0  0  0  0
  3 15  1  0  0  0  0
  4  5  1  0  0  0  0
  4 11  2  0  0  0  0
  5 10  1  0  0  0  0
  5  6  2  0  0  0  0
  6  7  1  0  0  0  0
  6 16  1  0  0  0  0
  7  8  1  0  0  0  0
  7  9  1  0  0  0  0
  9 10  2  0  0  0  0
 11 12  1  0  0  0  0
 12 17  1  0  0  0  0
M  END
$$$$
