ZINC000000033689      none
 OpenBabel11202420153D

 28 30  0  0  0  0  0  0  0  0999 V2000
   32.3239   35.0105   61.8808 O   0  0  0  0  0  0  0  0  0  0  0  0
   31.5737   35.9147   61.5679 C   0  0  0  0  0  0  0  0  0  0  0  0
   30.3422   35.9869   62.1108 N   0  0  0  0  0  0  0  0  0  0  0  0
   29.9074   34.9759   63.0775 C   0  0  0  0  0  0  0  0  0  0  0  0
   28.4650   35.0545   63.5817 C   0  0  0  0  0  0  0  0  0  0  0  0
   29.6208   35.4418   64.5064 C   0  0  0  0  0  0  0  0  0  0  0  0
   32.0119   36.9337   60.5936 C   0  0  0  0  0  0  0  0  0  0  0  0
   32.0630   38.1985   60.9344 N   0  0  0  0  0  0  0  0  0  0  0  0
   32.4303   39.1410   60.1512 N   0  0  0  0  0  0  0  0  0  0  0  0
   32.4350   40.0480   60.4952 H   0  0  0  0  0  0  0  0  0  0  0  0
   32.8208   38.9400   58.8756 C   0  0  0  0  0  0  0  0  0  0  0  0
   33.1616   39.8746   58.1740 O   0  0  0  0  0  0  0  0  0  0  0  0
   32.8101   37.5686   58.3482 C   0  0  0  0  0  0  0  0  0  0  0  0
   33.1795   37.2576   57.0434 C   0  0  0  0  0  0  0  0  0  0  0  0
   33.1414   35.9444   56.6252 C   0  0  0  0  0  0  0  0  0  0  0  0
   32.7392   34.9353   57.4904 C   0  0  0  0  0  0  0  0  0  0  0  0
   32.3697   35.2229   58.7874 C   0  0  0  0  0  0  0  0  0  0  0  0
   32.3963   36.5416   59.2281 C   0  0  0  0  0  0  0  0  0  0  0  0
   29.7437   36.7084   61.8611 H   0  0  0  0  0  0  0  0  0  0  0  0
   30.3427   33.9847   62.9491 H   0  0  0  0  0  0  0  0  0  0  0  0
   27.8395   35.8586   63.1939 H   0  0  0  0  0  0  0  0  0  0  0  0
   27.9510   34.1151   63.7850 H   0  0  0  0  0  0  0  0  0  0  0  0
   29.8671   34.7572   65.3180 H   0  0  0  0  0  0  0  0  0  0  0  0
   29.7561   36.5005   64.7271 H   0  0  0  0  0  0  0  0  0  0  0  0
   33.4927   38.0372   56.3647 H   0  0  0  0  0  0  0  0  0  0  0  0
   33.4271   35.6977   55.6134 H   0  0  0  0  0  0  0  0  0  0  0  0
   32.7158   33.9128   57.1434 H   0  0  0  0  0  0  0  0  0  0  0  0
   32.0582   34.4319   59.4534 H   0  0  0  0  0  0  0  0  0  0  0  0
  1  2  2  0  0  0  0
  2  3  1  0  0  0  0
  2  7  1  0  0  0  0
  3  4  1  0  0  0  0
  3 19  1  0  0  0  0
  4  6  1  0  0  0  0
  4  5  1  0  0  0  0
  4 20  1  0  0  0  0
  5  6  1  0  0  0  0
  5 21  1  0  0  0  0
  5 22  1  0  0  0  0
  6 23  1  0  0  0  0
  6 24  1  0  0  0  0
  7 18  1  0  0  0  0
  7  8  2  0  0  0  0
  8  9  1  0  0  0  0
  9 10  1  0  0  0  0
  9 11  1  0  0  0  0
 11 12  2  0  0  0  0
 11 13  1  0  0  0  0
 13 18  2  0  0  0  0
 13 14  1  0  0  0  0
 14 15  2  0  0  0  0
 14 25  1  0  0  0  0
 15 16  1  0  0  0  0
 15 26  1  0  0  0  0
 16 17  2  0  0  0  0
 16 27  1  0  0  0  0
 17 18  1  0  0  0  0
 17 28  1  0  0  0  0
M  END
$$$$
