ZINC000000054408      none
 OpenBabel11202420153D

 42 46  0  0  1  0  0  0  0  0999 V2000
   34.0536   37.6021   65.5351 O   0  0  0  0  0  0  0  0  0  0  0  0
   33.3322   38.2231   66.2911 C   0  0  0  0  0  0  0  0  0  0  0  0
   33.9209   39.3154   67.1405 C   0  0  0  0  0  0  0  0  0  0  0  0
   32.8402   40.3644   67.4233 C   0  0  0  0  0  0  0  0  0  0  0  0
   31.6510   39.6673   68.0878 C   0  0  0  0  0  0  0  0  0  0  0  0
   31.1349   38.5734   67.1850 C   0  0  0  0  0  0  0  0  0  0  0  0
   31.9652   37.9061   66.3538 C   0  0  0  0  0  0  0  0  0  0  0  0
   31.4556   36.8022   65.4633 C   0  0  2  0  0  0  0  0  0  0  0  0
   32.1766   35.9846   65.4614 H   0  0  0  0  0  0  0  0  0  0  0  0
   31.3083   37.3318   64.0601 C   0  0  0  0  0  0  0  0  0  0  0  0
   30.4569   38.3930   63.8163 C   0  0  0  0  0  0  0  0  0  0  0  0
   30.3332   38.8765   62.5230 C   0  0  0  0  0  0  0  0  0  0  0  0
   31.0651   38.2643   61.5167 C   0  0  0  0  0  0  0  0  0  0  0  0
   31.8918   37.2038   61.8352 C   0  0  0  0  0  0  0  0  0  0  0  0
   31.9890   36.7740   63.0782 N   0  0  0  0  0  0  0  0  0  0  0  0
   30.1276   36.2839   65.9339 C   0  0  0  0  0  0  0  0  0  0  0  0
   29.3471   37.0284   66.7899 C   0  0  0  0  0  0  0  0  0  0  0  0
   28.1042   36.5477   67.2219 C   0  0  0  0  0  0  0  0  0  0  0  0
   27.6397   35.3381   66.8129 C   0  0  0  0  0  0  0  0  0  0  0  0
   28.4120   34.5473   65.9438 C   0  0  0  0  0  0  0  0  0  0  0  0
   27.9763   33.3518   65.5329 N   0  0  0  0  0  0  0  0  0  0  0  0
   28.6886   32.6083   64.7219 C   0  0  0  0  0  0  0  0  0  0  0  0
   29.9318   33.0226   64.2485 C   0  0  0  0  0  0  0  0  0  0  0  0
   30.4372   34.2329   64.6296 C   0  0  0  0  0  0  0  0  0  0  0  0
   29.6690   35.0288   65.5013 C   0  0  0  0  0  0  0  0  0  0  0  0
   29.8050   38.2689   67.2350 N   0  0  0  0  0  0  0  0  0  0  0  0
   34.7519   39.7815   66.6111 H   0  0  0  0  0  0  0  0  0  0  0  0
   34.2772   38.8960   68.0814 H   0  0  0  0  0  0  0  0  0  0  0  0
   32.5202   40.8223   66.4874 H   0  0  0  0  0  0  0  0  0  0  0  0
   33.2347   41.1309   68.0901 H   0  0  0  0  0  0  0  0  0  0  0  0
   30.8584   40.3938   68.2669 H   0  0  0  0  0  0  0  0  0  0  0  0
   31.9684   39.2351   69.0367 H   0  0  0  0  0  0  0  0  0  0  0  0
   29.8984   38.8427   64.6240 H   0  0  0  0  0  0  0  0  0  0  0  0
   29.6788   39.7071   62.3035 H   0  0  0  0  0  0  0  0  0  0  0  0
   30.9897   38.6117   60.4969 H   0  0  0  0  0  0  0  0  0  0  0  0
   32.4650   36.7217   61.0573 H   0  0  0  0  0  0  0  0  0  0  0  0
   27.5056   37.1484   67.8907 H   0  0  0  0  0  0  0  0  0  0  0  0
   26.6780   34.9846   67.1546 H   0  0  0  0  0  0  0  0  0  0  0  0
   28.3016   31.6486   64.4125 H   0  0  0  0  0  0  0  0  0  0  0  0
   30.4954   32.3873   63.5813 H   0  0  0  0  0  0  0  0  0  0  0  0
   31.3991   34.5699   64.2726 H   0  0  0  0  0  0  0  0  0  0  0  0
   29.1745   38.9193   67.5818 H   0  0  0  0  0  0  0  0  0  0  0  0
  1  2  2  0  0  0  0
  2  7  1  0  0  0  0
  2  3  1  0  0  0  0
  3  4  1  0  0  0  0
  3 27  1  0  0  0  0
  3 28  1  0  0  0  0
  4  5  1  0  0  0  0
  4 29  1  0  0  0  0
  4 30  1  0  0  0  0
  5  6  1  0  0  0  0
  5 31  1  0  0  0  0
  5 32  1  0  0  0  0
  6 26  1  0  0  0  0
  6  7  2  0  0  0  0
  7  8  1  0  0  0  0
  8  9  1  6  0  0  0
  8 10  1  0  0  0  0
  8 16  1  0  0  0  0
 10 15  2  0  0  0  0
 10 11  1  0  0  0  0
 11 12  2  0  0  0  0
 11 33  1  0  0  0  0
 12 13  1  0  0  0  0
 12 34  1  0  0  0  0
 13 14  2  0  0  0  0
 13 35  1  0  0  0  0
 14 15  1  0  0  0  0
 14 36  1  0  0  0  0
 16 25  2  0  0  0  0
 16 17  1  0  0  0  0
 17 18  2  0  0  0  0
 17 26  1  0  0  0  0
 18 19  1  0  0  0  0
 18 37  1  0  0  0  0
 19 20  2  0  0  0  0
 19 38  1  0  0  0  0
 20 25  1  0  0  0  0
 20 21  1  0  0  0  0
 21 22  2  0  0  0  0
 22 23  1  0  0  0  0
 22 39  1  0  0  0  0
 23 24  2  0  0  0  0
 23 40  1  0  0  0  0
 24 25  1  0  0  0  0
 24 41  1  0  0  0  0
 26 42  1  0  0  0  0
M  END
$$$$
