ZINC000000047174      none
 OpenBabel11202420153D

 43 44  0  0  0  0  0  0  0  0999 V2000
   33.3978   37.4693   55.7810 C   0  0  0  0  0  0  0  0  0  0  0  0
   33.3537   36.4573   56.8394 N   0  0  0  0  0  0  0  0  0  0  0  0
   33.9064   35.1219   56.5995 C   0  0  0  0  0  0  0  0  0  0  0  0
   32.7850   36.7655   58.0765 C   0  0  0  0  0  0  0  0  0  0  0  0
   32.8302   38.0701   58.5552 C   0  0  0  0  0  0  0  0  0  0  0  0
   32.2699   38.3771   59.7764 C   0  0  0  0  0  0  0  0  0  0  0  0
   31.6616   37.3761   60.5350 C   0  0  0  0  0  0  0  0  0  0  0  0
   31.0648   37.7015   61.8501 C   0  0  0  0  0  0  0  0  0  0  0  0
   31.1072   38.9266   62.3013 N   0  0  0  0  0  0  0  0  0  0  0  0
   30.4201   39.2652   63.4744 N   0  0  0  0  0  0  0  0  0  0  0  0
   30.4200   36.6387   62.6537 C   0  0  0  0  0  0  0  0  0  0  0  0
   29.0582   36.3749   62.5000 C   0  0  0  0  0  0  0  0  0  0  0  0
   28.4613   35.3821   63.2468 C   0  0  0  0  0  0  0  0  0  0  0  0
   29.2126   34.6498   64.1592 C   0  0  0  0  0  0  0  0  0  0  0  0
   28.6043   33.6482   64.9177 N   0  0  0  0  0  0  0  0  0  0  0  0
   27.4961   33.9809   65.8164 C   0  0  0  0  0  0  0  0  0  0  0  0
   29.0740   32.2643   64.8151 C   0  0  0  0  0  0  0  0  0  0  0  0
   30.5684   34.9137   64.3179 C   0  0  0  0  0  0  0  0  0  0  0  0
   31.1715   35.9023   63.5706 C   0  0  0  0  0  0  0  0  0  0  0  0
   31.6127   36.0687   60.0494 C   0  0  0  0  0  0  0  0  0  0  0  0
   32.1750   35.7672   58.8277 C   0  0  0  0  0  0  0  0  0  0  0  0
   34.3244   38.0378   55.8603 H   0  0  0  0  0  0  0  0  0  0  0  0
   33.3540   36.9796   54.8081 H   0  0  0  0  0  0  0  0  0  0  0  0
   32.5477   38.1433   55.8871 H   0  0  0  0  0  0  0  0  0  0  0  0
   33.1278   34.4732   56.1982 H   0  0  0  0  0  0  0  0  0  0  0  0
   34.7260   35.1911   55.8844 H   0  0  0  0  0  0  0  0  0  0  0  0
   34.2765   34.7080   57.5375 H   0  0  0  0  0  0  0  0  0  0  0  0
   33.3049   38.8435   57.9697 H   0  0  0  0  0  0  0  0  0  0  0  0
   32.3055   39.3906   60.1480 H   0  0  0  0  0  0  0  0  0  0  0  0
   29.7991   38.6349   63.8719 H   0  0  0  0  0  0  0  0  0  0  0  0
   30.5657   40.1298   63.8893 H   0  0  0  0  0  0  0  0  0  0  0  0
   28.4733   36.9463   61.7943 H   0  0  0  0  0  0  0  0  0  0  0  0
   27.4083   35.1754   63.1258 H   0  0  0  0  0  0  0  0  0  0  0  0
   27.2236   35.0280   65.6848 H   0  0  0  0  0  0  0  0  0  0  0  0
   26.6381   33.3501   65.5841 H   0  0  0  0  0  0  0  0  0  0  0  0
   27.8023   33.8121   66.8487 H   0  0  0  0  0  0  0  0  0  0  0  0
   29.8592   32.0916   65.5511 H   0  0  0  0  0  0  0  0  0  0  0  0
   28.2436   31.5839   65.0033 H   0  0  0  0  0  0  0  0  0  0  0  0
   29.4687   32.0879   63.8145 H   0  0  0  0  0  0  0  0  0  0  0  0
   31.1496   34.3436   65.0275 H   0  0  0  0  0  0  0  0  0  0  0  0
   32.2246   36.1074   63.6947 H   0  0  0  0  0  0  0  0  0  0  0  0
   31.1392   35.2927   60.6327 H   0  0  0  0  0  0  0  0  0  0  0  0
   32.1413   34.7548   58.4534 H   0  0  0  0  0  0  0  0  0  0  0  0
  1  2  1  0  0  0  0
  1 22  1  0  0  0  0
  1 23  1  0  0  0  0
  1 24  1  0  0  0  0
  2  3  1  0  0  0  0
  2  4  1  0  0  0  0
  3 25  1  0  0  0  0
  3 26  1  0  0  0  0
  3 27  1  0  0  0  0
  4 21  2  0  0  0  0
  4  5  1  0  0  0  0
  5  6  2  0  0  0  0
  5 28  1  0  0  0  0
  6  7  1  0  0  0  0
  6 29  1  0  0  0  0
  7  8  1  0  0  0  0
  7 20  2  0  0  0  0
  8  9  2  0  0  0  0
  8 11  1  0  0  0  0
  9 10  1  0  0  0  0
 10 30  1  0  0  0  0
 10 31  1  0  0  0  0
 11 19  2  0  0  0  0
 11 12  1  0  0  0  0
 12 13  2  0  0  0  0
 12 32  1  0  0  0  0
 13 14  1  0  0  0  0
 13 33  1  0  0  0  0
 14 15  1  0  0  0  0
 14 18  2  0  0  0  0
 15 16  1  0  0  0  0
 15 17  1  0  0  0  0
 16 34  1  0  0  0  0
 16 35  1  0  0  0  0
 16 36  1  0  0  0  0
 17 37  1  0  0  0  0
 17 38  1  0  0  0  0
 17 39  1  0  0  0  0
 18 19  1  0  0  0  0
 18 40  1  0  0  0  0
 19 41  1  0  0  0  0
 20 21  1  0  0  0  0
 20 42  1  0  0  0  0
 21 43  1  0  0  0  0
M  END
$$$$
