ZINC000000007460      none
 OpenBabel11202420153D

 40 43  0  0  0  0  0  0  0  0999 V2000
   33.5011   39.4441   57.3203 Cl  0  0  0  0  0  0  0  0  0  0  0  0
   32.8983   38.2715   58.4496 C   0  0  0  0  0  0  0  0  0  0  0  0
   33.0619   36.9209   58.1962 C   0  0  0  0  0  0  0  0  0  0  0  0
   32.5829   35.9858   59.0926 C   0  0  0  0  0  0  0  0  0  0  0  0
   31.9363   36.4021   60.2493 C   0  0  0  0  0  0  0  0  0  0  0  0
   31.4504   35.4578   61.1585 N   0  0  0  0  0  0  0  0  0  0  0  0
   31.3847   35.7653   62.5081 C   0  0  0  0  0  0  0  0  0  0  0  0
   31.7781   36.9475   62.9494 N   0  0  0  0  0  0  0  0  0  0  0  0
   31.7389   37.2845   64.1845 N   0  0  0  0  0  0  0  0  0  0  0  0
   31.3051   36.4932   65.1385 C   0  0  0  0  0  0  0  0  0  0  0  0
   31.2898   36.9613   66.5709 C   0  0  0  0  0  0  0  0  0  0  0  0
   31.8206   38.3697   66.6449 C   0  0  0  0  0  0  0  0  0  0  0  0
   33.1728   38.6096   66.8357 C   0  0  0  0  0  0  0  0  0  0  0  0
   33.6237   39.9147   66.8933 C   0  0  0  0  0  0  0  0  0  0  0  0
   32.7831   40.9244   66.7795 N   0  0  0  0  0  0  0  0  0  0  0  0
   31.4903   40.7339   66.6027 C   0  0  0  0  0  0  0  0  0  0  0  0
   30.9675   39.4566   66.5295 C   0  0  0  0  0  0  0  0  0  0  0  0
   30.8552   35.2023   64.8052 C   0  0  0  0  0  0  0  0  0  0  0  0
   30.3776   34.2963   65.7610 C   0  0  0  0  0  0  0  0  0  0  0  0
   29.9589   33.0618   65.3621 C   0  0  0  0  0  0  0  0  0  0  0  0
   29.9986   32.6884   64.0207 C   0  0  0  0  0  0  0  0  0  0  0  0
   30.4577   33.5460   63.0648 C   0  0  0  0  0  0  0  0  0  0  0  0
   30.8953   34.8207   63.4388 C   0  0  0  0  0  0  0  0  0  0  0  0
   31.7683   37.7584   60.4983 C   0  0  0  0  0  0  0  0  0  0  0  0
   32.2545   38.6891   59.6012 C   0  0  0  0  0  0  0  0  0  0  0  0
   33.5644   36.5978   57.2964 H   0  0  0  0  0  0  0  0  0  0  0  0
   32.7106   34.9319   58.8941 H   0  0  0  0  0  0  0  0  0  0  0  0
   31.1593   34.5874   60.8446 H   0  0  0  0  0  0  0  0  0  0  0  0
   30.2681   36.9377   66.9500 H   0  0  0  0  0  0  0  0  0  0  0  0
   31.9165   36.3046   67.1745 H   0  0  0  0  0  0  0  0  0  0  0  0
   33.8655   37.7869   66.9341 H   0  0  0  0  0  0  0  0  0  0  0  0
   34.6761   40.1099   67.0376 H   0  0  0  0  0  0  0  0  0  0  0  0
   30.8326   41.5857   66.5137 H   0  0  0  0  0  0  0  0  0  0  0  0
   29.9078   39.3071   66.3839 H   0  0  0  0  0  0  0  0  0  0  0  0
   30.3417   34.5732   66.8043 H   0  0  0  0  0  0  0  0  0  0  0  0
   29.5900   32.3624   66.0977 H   0  0  0  0  0  0  0  0  0  0  0  0
   29.6602   31.7040   63.7332 H   0  0  0  0  0  0  0  0  0  0  0  0
   30.4836   33.2433   62.0284 H   0  0  0  0  0  0  0  0  0  0  0  0
   31.2617   38.0848   61.3944 H   0  0  0  0  0  0  0  0  0  0  0  0
   32.1285   39.7438   59.7966 H   0  0  0  0  0  0  0  0  0  0  0  0
  1  2  1  0  0  0  0
  2 25  2  0  0  0  0
  2  3  1  0  0  0  0
  3  4  2  0  0  0  0
  3 26  1  0  0  0  0
  4  5  1  0  0  0  0
  4 27  1  0  0  0  0
  5  6  1  0  0  0  0
  5 24  2  0  0  0  0
  6  7  1  0  0  0  0
  6 28  1  0  0  0  0
  7 23  2  0  0  0  0
  7  8  1  0  0  0  0
  8  9  2  0  0  0  0
  9 10  1  0  0  0  0
 10 11  1  0  0  0  0
 10 18  2  0  0  0  0
 11 12  1  0  0  0  0
 11 29  1  0  0  0  0
 11 30  1  0  0  0  0
 12 17  2  0  0  0  0
 12 13  1  0  0  0  0
 13 14  2  0  0  0  0
 13 31  1  0  0  0  0
 14 15  1  0  0  0  0
 14 32  1  0  0  0  0
 15 16  2  0  0  0  0
 16 17  1  0  0  0  0
 16 33  1  0  0  0  0
 17 34  1  0  0  0  0
 18 23  1  0  0  0  0
 18 19  1  0  0  0  0
 19 20  2  0  0  0  0
 19 35  1  0  0  0  0
 20 21  1  0  0  0  0
 20 36  1  0  0  0  0
 21 22  2  0  0  0  0
 21 37  1  0  0  0  0
 22 23  1  0  0  0  0
 22 38  1  0  0  0  0
 24 25  1  0  0  0  0
 24 39  1  0  0  0  0
 25 40  1  0  0  0  0
M  END
$$$$
