ZINC000000031854      none
 OpenBabel11202420163D

 39 41  0  0  1  0  0  0  0  0999 V2000
   32.8043   37.9201   60.5479 C   0  0  0  0  0  0  0  0  0  0  0  0
   31.5752   37.1599   61.0502 C   0  0  0  0  0  0  0  0  0  0  0  0
   31.2361   37.6186   62.4449 C   0  0  0  0  0  0  0  0  0  0  0  0
   30.3692   38.6798   62.6306 C   0  0  0  0  0  0  0  0  0  0  0  0
   30.0526   39.0996   63.9078 C   0  0  0  0  0  0  0  0  0  0  0  0
   30.6146   38.4618   65.0060 C   0  0  0  0  0  0  0  0  0  0  0  0
   30.3001   38.8880   66.3010 N   0  0  0  0  0  0  0  0  0  0  0  0
   29.1223   39.4355   66.5772 C   0  0  0  0  0  0  0  0  0  0  0  0
   28.2740   39.5966   65.7255 O   0  0  0  0  0  0  0  0  0  0  0  0
   28.8982   39.8428   68.0188 C   0  0  0  0  0  0  0  0  0  0  0  0
   30.2268   38.9361   68.9045 S   0  0  0  0  0  0  0  0  0  0  0  0
   29.7492   37.6647   69.3223 O   0  0  0  0  0  0  0  0  0  0  0  0
   30.8683   39.8016   69.8312 O   0  0  0  0  0  0  0  0  0  0  0  0
   31.2638   38.7510   67.4015 C   0  0  2  0  0  0  0  0  0  0  0  0
   31.7369   37.7692   67.3773 H   0  0  0  0  0  0  0  0  0  0  0  0
   32.3027   39.8406   67.3359 C   0  0  0  0  0  0  0  0  0  0  0  0
   33.5790   39.6079   67.8132 C   0  0  0  0  0  0  0  0  0  0  0  0
   34.5339   40.6051   67.7479 C   0  0  0  0  0  0  0  0  0  0  0  0
   34.2091   41.8399   67.2152 C   0  0  0  0  0  0  0  0  0  0  0  0
   35.4057   43.0953   67.1400 Cl  0  0  0  0  0  0  0  0  0  0  0  0
   32.9299   42.0739   66.7429 C   0  0  0  0  0  0  0  0  0  0  0  0
   31.9775   41.0742   66.8035 C   0  0  0  0  0  0  0  0  0  0  0  0
   31.4891   37.3997   64.8160 C   0  0  0  0  0  0  0  0  0  0  0  0
   31.7970   36.9811   63.5364 C   0  0  0  0  0  0  0  0  0  0  0  0
   33.6479   37.7249   61.2098 H   0  0  0  0  0  0  0  0  0  0  0  0
   33.0495   37.5884   59.5389 H   0  0  0  0  0  0  0  0  0  0  0  0
   32.5908   38.9891   60.5370 H   0  0  0  0  0  0  0  0  0  0  0  0
   31.7886   36.0910   61.0611 H   0  0  0  0  0  0  0  0  0  0  0  0
   30.7316   37.3552   60.3883 H   0  0  0  0  0  0  0  0  0  0  0  0
   29.9362   39.1785   61.7760 H   0  0  0  0  0  0  0  0  0  0  0  0
   29.3723   39.9258   64.0522 H   0  0  0  0  0  0  0  0  0  0  0  0
   27.9151   39.5239   68.3652 H   0  0  0  0  0  0  0  0  0  0  0  0
   29.0183   40.9195   68.1388 H   0  0  0  0  0  0  0  0  0  0  0  0
   33.8313   38.6454   68.2329 H   0  0  0  0  0  0  0  0  0  0  0  0
   35.5323   40.4218   68.1168 H   0  0  0  0  0  0  0  0  0  0  0  0
   32.6758   43.0376   66.3266 H   0  0  0  0  0  0  0  0  0  0  0  0
   30.9788   41.2569   66.4350 H   0  0  0  0  0  0  0  0  0  0  0  0
   31.9275   36.9015   65.6680 H   0  0  0  0  0  0  0  0  0  0  0  0
   32.4770   36.1552   63.3880 H   0  0  0  0  0  0  0  0  0  0  0  0
  1  2  1  0  0  0  0
  1 25  1  0  0  0  0
  1 26  1  0  0  0  0
  1 27  1  0  0  0  0
  2  3  1  0  0  0  0
  2 28  1  0  0  0  0
  2 29  1  0  0  0  0
  3 24  2  0  0  0  0
  3  4  1  0  0  0  0
  4  5  2  0  0  0  0
  4 30  1  0  0  0  0
  5  6  1  0  0  0  0
  5 31  1  0  0  0  0
  6  7  1  0  0  0  0
  6 23  2  0  0  0  0
  7 14  1  0  0  0  0
  7  8  1  0  0  0  0
  8  9  2  0  0  0  0
  8 10  1  0  0  0  0
 10 11  1  0  0  0  0
 10 32  1  0  0  0  0
 10 33  1  0  0  0  0
 11 12  2  0  0  0  0
 11 13  2  0  0  0  0
 11 14  1  0  0  0  0
 14 15  1  6  0  0  0
 14 16  1  0  0  0  0
 16 22  2  0  0  0  0
 16 17  1  0  0  0  0
 17 18  2  0  0  0  0
 17 34  1  0  0  0  0
 18 19  1  0  0  0  0
 18 35  1  0  0  0  0
 19 20  1  0  0  0  0
 19 21  2  0  0  0  0
 21 22  1  0  0  0  0
 21 36  1  0  0  0  0
 22 37  1  0  0  0  0
 23 24  1  0  0  0  0
 23 38  1  0  0  0  0
 24 39  1  0  0  0  0
M  END
$$$$
