ZINC000000029199      none
 OpenBabel11202420163D

 33 34  0  0  0  0  0  0  0  0999 V2000
   31.6950   37.9087   63.7963 O   0  0  0  0  0  0  0  0  0  0  0  0
   31.9837   37.0840   62.6756 S   0  0  0  0  0  0  0  0  0  0  0  0
   33.3023   36.8556   62.1979 O   0  0  0  0  0  0  0  0  0  0  0  0
   31.1267   37.7076   61.4031 N   0  0  0  0  0  0  0  0  0  0  0  0
   31.5634   37.4489   60.0289 C   0  0  0  0  0  0  0  0  0  0  0  0
   32.5297   38.5490   59.5854 C   0  0  0  0  0  0  0  0  0  0  0  0
   32.9791   38.2830   58.1717 C   0  0  0  0  0  0  0  0  0  0  0  0
   33.3043   39.3380   57.3397 C   0  0  0  0  0  0  0  0  0  0  0  0
   33.7211   39.0937   56.0445 C   0  0  0  0  0  0  0  0  0  0  0  0
   33.8026   37.7949   55.5780 C   0  0  0  0  0  0  0  0  0  0  0  0
   33.4724   36.7403   56.4083 C   0  0  0  0  0  0  0  0  0  0  0  0
   33.0606   36.9843   57.7052 C   0  0  0  0  0  0  0  0  0  0  0  0
   31.3036   35.4991   63.0358 C   0  0  0  0  0  0  0  0  0  0  0  0
   30.2706   35.3816   63.9471 C   0  0  0  0  0  0  0  0  0  0  0  0
   29.7326   34.1396   64.2262 C   0  0  0  0  0  0  0  0  0  0  0  0
   30.2362   33.0113   63.6016 C   0  0  0  0  0  0  0  0  0  0  0  0
   29.7153   31.7959   63.8784 F   0  0  0  0  0  0  0  0  0  0  0  0
   31.2746   33.1295   62.6932 C   0  0  0  0  0  0  0  0  0  0  0  0
   31.8069   34.3733   62.4112 C   0  0  0  0  0  0  0  0  0  0  0  0
   30.3355   38.2441   61.5678 H   0  0  0  0  0  0  0  0  0  0  0  0
   32.0667   36.4832   59.9833 H   0  0  0  0  0  0  0  0  0  0  0  0
   30.6966   37.4386   59.3680 H   0  0  0  0  0  0  0  0  0  0  0  0
   32.0266   39.5149   59.6309 H   0  0  0  0  0  0  0  0  0  0  0  0
   33.3966   38.5594   60.2462 H   0  0  0  0  0  0  0  0  0  0  0  0
   33.2363   40.3529   57.7028 H   0  0  0  0  0  0  0  0  0  0  0  0
   33.9787   39.9177   55.3957 H   0  0  0  0  0  0  0  0  0  0  0  0
   34.1240   37.6043   54.5647 H   0  0  0  0  0  0  0  0  0  0  0  0
   33.5358   35.7256   56.0438 H   0  0  0  0  0  0  0  0  0  0  0  0
   32.8023   36.1603   58.3538 H   0  0  0  0  0  0  0  0  0  0  0  0
   29.8812   36.2612   64.4381 H   0  0  0  0  0  0  0  0  0  0  0  0
   28.9229   34.0486   64.9352 H   0  0  0  0  0  0  0  0  0  0  0  0
   31.6685   32.2501   62.2056 H   0  0  0  0  0  0  0  0  0  0  0  0
   32.6168   34.4657   61.7027 H   0  0  0  0  0  0  0  0  0  0  0  0
  1  2  2  0  0  0  0
  2  3  2  0  0  0  0
  2  4  1  0  0  0  0
  2 13  1  0  0  0  0
  4  5  1  0  0  0  0
  4 20  1  0  0  0  0
  5  6  1  0  0  0  0
  5 21  1  0  0  0  0
  5 22  1  0  0  0  0
  6  7  1  0  0  0  0
  6 23  1  0  0  0  0
  6 24  1  0  0  0  0
  7 12  2  0  0  0  0
  7  8  1  0  0  0  0
  8  9  2  0  0  0  0
  8 25  1  0  0  0  0
  9 10  1  0  0  0  0
  9 26  1  0  0  0  0
 10 11  2  0  0  0  0
 10 27  1  0  0  0  0
 11 12  1  0  0  0  0
 11 28  1  0  0  0  0
 12 29  1  0  0  0  0
 13 19  2  0  0  0  0
 13 14  1  0  0  0  0
 14 15  2  0  0  0  0
 14 30  1  0  0  0  0
 15 16  1  0  0  0  0
 15 31  1  0  0  0  0
 16 17  1  0  0  0  0
 16 18  2  0  0  0  0
 18 19  1  0  0  0  0
 18 32  1  0  0  0  0
 19 33  1  0  0  0  0
M  END
$$$$
