ZINC000000000452      none
 OpenBabel11202420153D

 29 30  0  0  1  0  0  0  0  0999 V2000
   33.2251   36.0224   55.7830 C   0  0  0  0  0  0  0  0  0  0  0  0
   32.8374   36.1218   57.1548 O   0  0  0  0  0  0  0  0  0  0  0  0
   32.9240   37.3494   57.7334 C   0  0  0  0  0  0  0  0  0  0  0  0
   33.3726   38.4341   56.9970 C   0  0  0  0  0  0  0  0  0  0  0  0
   33.4603   39.6812   57.5868 C   0  0  0  0  0  0  0  0  0  0  0  0
   33.1013   39.8498   58.9112 C   0  0  0  0  0  0  0  0  0  0  0  0
   32.6530   38.7719   59.6515 C   0  0  0  0  0  0  0  0  0  0  0  0
   32.5626   37.5191   59.0665 C   0  0  0  0  0  0  0  0  0  0  0  0
   32.1222   36.4575   59.7935 O   0  0  0  0  0  0  0  0  0  0  0  0
   30.8045   36.5471   60.3394 C   0  0  0  0  0  0  0  0  0  0  0  0
   30.7356   35.7436   61.6397 C   0  0  2  0  0  0  0  0  0  0  0  0
   29.7361   35.8008   62.0705 H   0  0  0  0  0  0  0  0  0  0  0  0
   31.7897   36.2491   62.6435 C   0  0  0  0  0  0  0  0  0  0  0  0
   32.6525   35.0786   62.8648 N   0  0  0  0  0  0  0  0  0  0  0  0
   32.1963   34.0578   62.1263 C   0  0  0  0  0  0  0  0  0  0  0  0
   32.7200   32.9615   62.1152 O   0  0  0  0  0  0  0  0  0  0  0  0
   31.1112   34.3559   61.4030 O   0  0  0  0  0  0  0  0  0  0  0  0
   33.1082   34.9923   55.4461 H   0  0  0  0  0  0  0  0  0  0  0  0
   32.5953   36.6758   55.1791 H   0  0  0  0  0  0  0  0  0  0  0  0
   34.2674   36.3231   55.6772 H   0  0  0  0  0  0  0  0  0  0  0  0
   33.6578   38.3043   55.9634 H   0  0  0  0  0  0  0  0  0  0  0  0
   33.8102   40.5258   57.0117 H   0  0  0  0  0  0  0  0  0  0  0  0
   33.1714   40.8257   59.3684 H   0  0  0  0  0  0  0  0  0  0  0  0
   32.3736   38.9062   60.6861 H   0  0  0  0  0  0  0  0  0  0  0  0
   30.5662   37.5908   60.5442 H   0  0  0  0  0  0  0  0  0  0  0  0
   30.0871   36.1439   59.6248 H   0  0  0  0  0  0  0  0  0  0  0  0
   32.3626   37.0717   62.2155 H   0  0  0  0  0  0  0  0  0  0  0  0
   31.3146   36.5563   63.5753 H   0  0  0  0  0  0  0  0  0  0  0  0
   33.4257   35.0503   63.4500 H   0  0  0  0  0  0  0  0  0  0  0  0
  1  2  1  0  0  0  0
  1 18  1  0  0  0  0
  1 19  1  0  0  0  0
  1 20  1  0  0  0  0
  2  3  1  0  0  0  0
  3  8  2  0  0  0  0
  3  4  1  0  0  0  0
  4  5  2  0  0  0  0
  4 21  1  0  0  0  0
  5  6  1  0  0  0  0
  5 22  1  0  0  0  0
  6  7  2  0  0  0  0
  6 23  1  0  0  0  0
  7  8  1  0  0  0  0
  7 24  1  0  0  0  0
  8  9  1  0  0  0  0
  9 10  1  0  0  0  0
 10 11  1  0  0  0  0
 10 25  1  0  0  0  0
 10 26  1  0  0  0  0
 11 12  1  1  0  0  0
 11 17  1  0  0  0  0
 11 13  1  0  0  0  0
 13 14  1  0  0  0  0
 13 27  1  0  0  0  0
 13 28  1  0  0  0  0
 14 15  1  0  0  0  0
 14 29  1  0  0  0  0
 15 16  2  0  0  0  0
 15 17  1  0  0  0  0
M  END
$$$$
