ZINC000000004243      none
 OpenBabel11202420153D

 45 48  0  0  0  0  0  0  0  0999 V2000
   31.9170   39.2884   65.3345 C   0  0  0  0  0  0  0  0  0  0  0  0
   31.3395   38.0172   65.9602 C   0  0  0  0  0  0  0  0  0  0  0  0
   29.9153   37.9060   65.6176 N   0  0  0  0  0  0  0  0  0  0  0  0
   29.0922   38.7008   66.5314 C   0  0  0  0  0  0  0  0  0  0  0  0
   29.0650   38.0050   67.8980 C   0  0  0  0  0  0  0  0  0  0  0  0
   28.2793   36.7005   67.7470 C   0  0  0  0  0  0  0  0  0  0  0  0
   28.7589   35.9579   66.5253 C   0  0  0  0  0  0  0  0  0  0  0  0
   28.4114   34.6225   66.3941 C   0  0  0  0  0  0  0  0  0  0  0  0
   28.8188   33.8977   65.2920 C   0  0  0  0  0  0  0  0  0  0  0  0
   29.5777   34.5065   64.3089 C   0  0  0  0  0  0  0  0  0  0  0  0
   29.9275   35.8336   64.4327 C   0  0  0  0  0  0  0  0  0  0  0  0
   30.7530   36.4936   63.3585 C   0  0  0  0  0  0  0  0  0  0  0  0
   29.6541   37.2120   62.1068 S   0  0  2  0  0  0  0  0  0  0  0  0
   28.8590   36.1855   61.5296 O   0  0  0  0  0  0  0  0  0  0  0  0
   30.7614   37.6359   60.8034 C   0  0  0  0  0  0  0  0  0  0  0  0
   31.3686   38.7804   60.6841 N   0  0  0  0  0  0  0  0  0  0  0  0
   32.1473   38.7700   59.5717 C   0  0  0  0  0  0  0  0  0  0  0  0
   32.9958   39.7099   58.9806 C   0  0  0  0  0  0  0  0  0  0  0  0
   33.6573   39.3989   57.8265 C   0  0  0  0  0  0  0  0  0  0  0  0
   33.4960   38.1558   57.2311 C   0  0  0  0  0  0  0  0  0  0  0  0
   32.6642   37.2130   57.7966 C   0  0  0  0  0  0  0  0  0  0  0  0
   31.9840   37.5111   58.9695 C   0  0  0  0  0  0  0  0  0  0  0  0
   31.1014   36.8164   59.7722 N   0  0  0  0  0  0  0  0  0  0  0  0
   30.7824   35.9118   59.6275 H   0  0  0  0  0  0  0  0  0  0  0  0
   29.5213   36.5708   65.5466 C   0  0  0  0  0  0  0  0  0  0  0  0
   31.3822   40.1573   65.7181 H   0  0  0  0  0  0  0  0  0  0  0  0
   32.9736   39.3708   65.5888 H   0  0  0  0  0  0  0  0  0  0  0  0
   31.8064   39.2428   64.2512 H   0  0  0  0  0  0  0  0  0  0  0  0
   31.4502   38.0628   67.0437 H   0  0  0  0  0  0  0  0  0  0  0  0
   31.8742   37.1483   65.5767 H   0  0  0  0  0  0  0  0  0  0  0  0
   28.0782   38.7760   66.1389 H   0  0  0  0  0  0  0  0  0  0  0  0
   29.5182   39.6985   66.6374 H   0  0  0  0  0  0  0  0  0  0  0  0
   28.5752   38.6479   68.6294 H   0  0  0  0  0  0  0  0  0  0  0  0
   30.0827   37.7872   68.2220 H   0  0  0  0  0  0  0  0  0  0  0  0
   27.2182   36.9263   67.6409 H   0  0  0  0  0  0  0  0  0  0  0  0
   28.4317   36.0814   68.6310 H   0  0  0  0  0  0  0  0  0  0  0  0
   27.8178   34.1453   67.1598 H   0  0  0  0  0  0  0  0  0  0  0  0
   28.5491   32.8559   65.1999 H   0  0  0  0  0  0  0  0  0  0  0  0
   29.8963   33.9419   63.4451 H   0  0  0  0  0  0  0  0  0  0  0  0
   31.3631   37.2810   63.8014 H   0  0  0  0  0  0  0  0  0  0  0  0
   31.4007   35.7519   62.8908 H   0  0  0  0  0  0  0  0  0  0  0  0
   33.1287   40.6804   59.4355 H   0  0  0  0  0  0  0  0  0  0  0  0
   34.3123   40.1279   57.3727 H   0  0  0  0  0  0  0  0  0  0  0  0
   34.0257   37.9254   56.3186 H   0  0  0  0  0  0  0  0  0  0  0  0
   32.5425   36.2469   57.3294 H   0  0  0  0  0  0  0  0  0  0  0  0
  1  2  1  0  0  0  0
  1 26  1  0  0  0  0
  1 27  1  0  0  0  0
  1 28  1  0  0  0  0
  2  3  1  0  0  0  0
  2 29  1  0  0  0  0
  2 30  1  0  0  0  0
  3 25  1  0  0  0  0
  3  4  1  0  0  0  0
  4  5  1  0  0  0  0
  4 31  1  0  0  0  0
  4 32  1  0  0  0  0
  5  6  1  0  0  0  0
  5 33  1  0  0  0  0
  5 34  1  0  0  0  0
  6  7  1  0  0  0  0
  6 35  1  0  0  0  0
  6 36  1  0  0  0  0
  7 25  2  0  0  0  0
  7  8  1  0  0  0  0
  8  9  2  0  0  0  0
  8 37  1  0  0  0  0
  9 10  1  0  0  0  0
  9 38  1  0  0  0  0
 10 11  2  0  0  0  0
 10 39  1  0  0  0  0
 11 12  1  0  0  0  0
 11 25  1  0  0  0  0
 12 13  1  0  0  0  0
 12 40  1  0  0  0  0
 12 41  1  0  0  0  0
 13 14  2  6  0  0  0
 13 15  1  0  0  0  0
 15 23  1  0  0  0  0
 15 16  2  0  0  0  0
 16 17  1  0  0  0  0
 17 22  2  0  0  0  0
 17 18  1  0  0  0  0
 18 19  2  0  0  0  0
 18 42  1  0  0  0  0
 19 20  1  0  0  0  0
 19 43  1  0  0  0  0
 20 21  2  0  0  0  0
 20 44  1  0  0  0  0
 21 22  1  0  0  0  0
 21 45  1  0  0  0  0
 22 23  1  0  0  0  0
 23 24  1  0  0  0  0
M  END
$$$$
