ZINC000000033483      none
 OpenBabel11202420153D

 30 30  0  0  0  0  0  0  0  0999 V2000
   33.8120   32.6854   55.5416 C   0  0  0  0  0  0  0  0  0  0  0  0
   32.4373   33.2747   55.8639 C   0  0  0  0  0  0  0  0  0  0  0  0
   32.5602   34.7074   56.0661 O   0  0  0  0  0  0  0  0  0  0  0  0
   32.8086   35.1294   57.3229 C   0  0  0  0  0  0  0  0  0  0  0  0
   32.9196   34.3211   58.2252 O   0  0  0  0  0  0  0  0  0  0  0  0
   32.9447   36.5602   57.6010 C   0  0  0  0  0  0  0  0  0  0  0  0
   32.6076   37.1365   58.7997 C   0  0  0  0  0  0  0  0  0  0  0  0
   32.1008   36.4478   59.8904 N   0  0  0  0  0  0  0  0  0  0  0  0
   31.8009   37.1099   61.0253 C   0  0  0  0  0  0  0  0  0  0  0  0
   31.3028   36.4411   62.0842 N   0  0  0  0  0  0  0  0  0  0  0  0
   31.9794   38.3106   61.0939 O   0  0  0  0  0  0  0  0  0  0  0  0
   32.9047   38.8144   58.7653 S   0  0  0  0  0  0  0  0  0  0  0  0
   33.4869   38.7567   57.1112 C   0  0  0  0  0  0  0  0  0  0  0  0
   33.9690   39.9530   56.3319 C   0  0  0  0  0  0  0  0  0  0  0  0
   33.4456   37.5192   56.6399 C   0  0  0  0  0  0  0  0  0  0  0  0
   33.8806   37.1472   55.2458 C   0  0  0  0  0  0  0  0  0  0  0  0
   34.2021   33.1481   54.6350 H   0  0  0  0  0  0  0  0  0  0  0  0
   34.4934   32.8783   56.3701 H   0  0  0  0  0  0  0  0  0  0  0  0
   33.7198   31.6101   55.3899 H   0  0  0  0  0  0  0  0  0  0  0  0
   32.0473   32.8120   56.7705 H   0  0  0  0  0  0  0  0  0  0  0  0
   31.7560   33.0817   55.0354 H   0  0  0  0  0  0  0  0  0  0  0  0
   31.9582   35.4898   59.8357 H   0  0  0  0  0  0  0  0  0  0  0  0
   31.1603   35.4832   62.0294 H   0  0  0  0  0  0  0  0  0  0  0  0
   31.0869   36.9177   62.9010 H   0  0  0  0  0  0  0  0  0  0  0  0
   33.8979   40.8448   56.9545 H   0  0  0  0  0  0  0  0  0  0  0  0
   35.0062   39.7992   56.0346 H   0  0  0  0  0  0  0  0  0  0  0  0
   33.3513   40.0804   55.4429 H   0  0  0  0  0  0  0  0  0  0  0  0
   34.9410   36.8951   55.2512 H   0  0  0  0  0  0  0  0  0  0  0  0
   33.3046   36.2878   54.9027 H   0  0  0  0  0  0  0  0  0  0  0  0
   33.7107   37.9896   54.5753 H   0  0  0  0  0  0  0  0  0  0  0  0
  1  2  1  0  0  0  0
  1 17  1  0  0  0  0
  1 18  1  0  0  0  0
  1 19  1  0  0  0  0
  2  3  1  0  0  0  0
  2 20  1  0  0  0  0
  2 21  1  0  0  0  0
  3  4  1  0  0  0  0
  4  5  2  0  0  0  0
  4  6  1  0  0  0  0
  6 15  1  0  0  0  0
  6  7  2  0  0  0  0
  7  8  1  0  0  0  0
  7 12  1  0  0  0  0
  8  9  1  0  0  0  0
  8 22  1  0  0  0  0
  9 10  1  0  0  0  0
  9 11  2  0  0  0  0
 10 23  1  0  0  0  0
 10 24  1  0  0  0  0
 12 13  1  0  0  0  0
 13 14  1  0  0  0  0
 13 15  2  0  0  0  0
 14 25  1  0  0  0  0
 14 26  1  0  0  0  0
 14 27  1  0  0  0  0
 15 16  1  0  0  0  0
 16 28  1  0  0  0  0
 16 29  1  0  0  0  0
 16 30  1  0  0  0  0
M  END
$$$$
