ZINC000000038959      none
 OpenBabel11202420153D

 30 32  0  0  0  0  0  0  0  0999 V2000
   30.3391   34.3450   59.2871 O   0  0  0  0  0  0  0  0  0  0  0  0
   30.6559   35.2830   60.3064 S   0  0  0  0  0  0  0  0  0  0  0  0
   29.6731   35.9061   61.1219 O   0  0  0  0  0  0  0  0  0  0  0  0
   31.7023   34.5180   61.3371 N   0  0  0  0  0  0  0  0  0  0  0  0
   31.8214   34.9517   62.6621 C   0  0  0  0  0  0  0  0  0  0  0  0
   31.0055   34.4094   63.6462 C   0  0  0  0  0  0  0  0  0  0  0  0
   31.1253   34.8334   64.9561 C   0  0  0  0  0  0  0  0  0  0  0  0
   32.0533   35.8064   65.2896 C   0  0  0  0  0  0  0  0  0  0  0  0
   32.8730   36.3522   64.3050 C   0  0  0  0  0  0  0  0  0  0  0  0
   32.7553   35.9238   62.9930 C   0  0  0  0  0  0  0  0  0  0  0  0
   33.6951   37.2757   64.8839 O   0  0  0  0  0  0  0  0  0  0  0  0
   33.0926   37.5844   66.1544 C   0  0  0  0  0  0  0  0  0  0  0  0
   32.3624   36.3888   66.4863 O   0  0  0  0  0  0  0  0  0  0  0  0
   31.5514   36.5837   59.5248 C   0  0  0  0  0  0  0  0  0  0  0  0
   31.5786   37.8430   60.0942 C   0  0  0  0  0  0  0  0  0  0  0  0
   32.2855   38.8624   59.4845 C   0  0  0  0  0  0  0  0  0  0  0  0
   32.9565   38.6250   58.2981 C   0  0  0  0  0  0  0  0  0  0  0  0
   33.8382   39.9067   57.5277 Cl  0  0  0  0  0  0  0  0  0  0  0  0
   32.9241   37.3659   57.7257 C   0  0  0  0  0  0  0  0  0  0  0  0
   32.2215   36.3459   58.3393 C   0  0  0  0  0  0  0  0  0  0  0  0
   32.2325   33.7693   61.0223 H   0  0  0  0  0  0  0  0  0  0  0  0
   30.2793   33.6528   63.3885 H   0  0  0  0  0  0  0  0  0  0  0  0
   30.4932   34.4067   65.7207 H   0  0  0  0  0  0  0  0  0  0  0  0
   33.3903   36.3457   62.2281 H   0  0  0  0  0  0  0  0  0  0  0  0
   32.4152   38.4333   66.0608 H   0  0  0  0  0  0  0  0  0  0  0  0
   33.8590   37.7855   66.9031 H   0  0  0  0  0  0  0  0  0  0  0  0
   31.0512   38.0294   61.0181 H   0  0  0  0  0  0  0  0  0  0  0  0
   32.3104   39.8451   59.9318 H   0  0  0  0  0  0  0  0  0  0  0  0
   33.4474   37.1800   56.7994 H   0  0  0  0  0  0  0  0  0  0  0  0
   32.1960   35.3631   57.8923 H   0  0  0  0  0  0  0  0  0  0  0  0
  1  2  2  0  0  0  0
  2  3  2  0  0  0  0
  2  4  1  0  0  0  0
  2 14  1  0  0  0  0
  4  5  1  0  0  0  0
  4 21  1  0  0  0  0
  5 10  2  0  0  0  0
  5  6  1  0  0  0  0
  6  7  2  0  0  0  0
  6 22  1  0  0  0  0
  7  8  1  0  0  0  0
  7 23  1  0  0  0  0
  8 13  1  0  0  0  0
  8  9  2  0  0  0  0
  9 10  1  0  0  0  0
  9 11  1  0  0  0  0
 10 24  1  0  0  0  0
 11 12  1  0  0  0  0
 12 13  1  0  0  0  0
 12 25  1  0  0  0  0
 12 26  1  0  0  0  0
 14 20  2  0  0  0  0
 14 15  1  0  0  0  0
 15 16  2  0  0  0  0
 15 27  1  0  0  0  0
 16 17  1  0  0  0  0
 16 28  1  0  0  0  0
 17 18  1  0  0  0  0
 17 19  2  0  0  0  0
 19 20  1  0  0  0  0
 19 29  1  0  0  0  0
 20 30  1  0  0  0  0
M  END
$$$$
