ZINC000000057948      none
 OpenBabel11202420153D

 23 24  0  0  0  0  0  0  0  0999 V2000
   33.9355   37.5667   54.8903 C   0  0  0  0  0  0  0  0  0  0  0  0
   33.5576   37.8897   56.2300 O   0  0  0  0  0  0  0  0  0  0  0  0
   33.1289   36.8654   57.0144 C   0  0  0  0  0  0  0  0  0  0  0  0
   33.0752   35.5728   56.5017 C   0  0  0  0  0  0  0  0  0  0  0  0
   32.6428   34.5241   57.2836 C   0  0  0  0  0  0  0  0  0  0  0  0
   32.2547   34.7487   58.6005 C   0  0  0  0  0  0  0  0  0  0  0  0
   31.8312   33.7242   59.3689 O   0  0  0  0  0  0  0  0  0  0  0  0
   31.4456   33.8645   60.6338 C   0  0  0  0  0  0  0  0  0  0  0  0
   31.4465   35.0874   61.2733 C   0  0  0  0  0  0  0  0  0  0  0  0
   31.0151   35.2049   62.6675 C   0  0  0  0  0  0  0  0  0  0  0  0
   30.6508   34.2197   63.2750 O   0  0  0  0  0  0  0  0  0  0  0  0
   31.8937   36.2746   60.5171 C   0  0  0  0  0  0  0  0  0  0  0  0
   31.9186   37.3821   61.0228 O   0  0  0  0  0  0  0  0  0  0  0  0
   32.3100   36.0522   59.1177 C   0  0  0  0  0  0  0  0  0  0  0  0
   32.7480   37.1089   58.3210 C   0  0  0  0  0  0  0  0  0  0  0  0
   33.0832   37.1336   54.3667 H   0  0  0  0  0  0  0  0  0  0  0  0
   34.2567   38.4720   54.3751 H   0  0  0  0  0  0  0  0  0  0  0  0
   34.7550   36.8481   54.9073 H   0  0  0  0  0  0  0  0  0  0  0  0
   33.3750   35.3899   55.4805 H   0  0  0  0  0  0  0  0  0  0  0  0
   32.6093   33.5251   56.8747 H   0  0  0  0  0  0  0  0  0  0  0  0
   31.1200   32.9912   61.1794 H   0  0  0  0  0  0  0  0  0  0  0  0
   31.0210   36.1685   63.1553 H   0  0  0  0  0  0  0  0  0  0  0  0
   32.7892   38.1110   58.7216 H   0  0  0  0  0  0  0  0  0  0  0  0
  1  2  1  0  0  0  0
  1 16  1  0  0  0  0
  1 17  1  0  0  0  0
  1 18  1  0  0  0  0
  2  3  1  0  0  0  0
  3 15  2  0  0  0  0
  3  4  1  0  0  0  0
  4  5  2  0  0  0  0
  4 19  1  0  0  0  0
  5  6  1  0  0  0  0
  5 20  1  0  0  0  0
  6 14  2  0  0  0  0
  6  7  1  0  0  0  0
  7  8  1  0  0  0  0
  8  9  2  0  0  0  0
  8 21  1  0  0  0  0
  9 10  1  0  0  0  0
  9 12  1  0  0  0  0
 10 11  2  0  0  0  0
 10 22  1  0  0  0  0
 12 13  2  0  0  0  0
 12 14  1  0  0  0  0
 14 15  1  0  0  0  0
 15 23  1  0  0  0  0
M  END
$$$$
