ZINC000000032357      none
 OpenBabel11202420153D

 30 30  0  0  0  0  0  0  0  0999 V2000
   32.9460   35.9995   51.9238 C   0  0  0  0  0  0  0  0  0  0  0  0
   33.9447   36.8742   52.6845 C   0  0  0  0  0  0  0  0  0  0  0  0
   33.4283   37.1561   54.0118 O   0  0  0  0  0  0  0  0  0  0  0  0
   34.1929   37.9204   54.8160 C   0  0  0  0  0  0  0  0  0  0  0  0
   35.2617   38.3397   54.4190 O   0  0  0  0  0  0  0  0  0  0  0  0
   33.7318   38.2483   56.1796 C   0  0  0  0  0  0  0  0  0  0  0  0
   32.9059   37.4490   56.9951 C   0  0  0  0  0  0  0  0  0  0  0  0
   32.7481   38.1555   58.1592 C   0  0  0  0  0  0  0  0  0  0  0  0
   31.9677   37.7451   59.3362 C   0  0  0  0  0  0  0  0  0  0  0  0
   32.3002   38.1151   60.4451 O   0  0  0  0  0  0  0  0  0  0  0  0
   30.8834   36.9584   59.1850 O   0  0  0  0  0  0  0  0  0  0  0  0
   30.5591   36.0650   60.2828 C   0  0  0  0  0  0  0  0  0  0  0  0
   31.7293   35.1098   60.5258 C   0  0  0  0  0  0  0  0  0  0  0  0
   33.4577   39.3161   58.0141 N   0  0  0  0  0  0  0  0  0  0  0  0
   33.5635   40.3701   59.0260 C   0  0  0  0  0  0  0  0  0  0  0  0
   34.0175   39.3438   56.8583 N   0  0  0  0  0  0  0  0  0  0  0  0
   32.7986   35.0636   52.4628 H   0  0  0  0  0  0  0  0  0  0  0  0
   31.9941   36.5241   51.8397 H   0  0  0  0  0  0  0  0  0  0  0  0
   33.3336   35.7880   50.9273 H   0  0  0  0  0  0  0  0  0  0  0  0
   34.0920   37.8101   52.1456 H   0  0  0  0  0  0  0  0  0  0  0  0
   34.8965   36.3498   52.7686 H   0  0  0  0  0  0  0  0  0  0  0  0
   32.4865   36.4833   56.7541 H   0  0  0  0  0  0  0  0  0  0  0  0
   30.3738   36.6492   61.1842 H   0  0  0  0  0  0  0  0  0  0  0  0
   29.6672   35.4906   60.0324 H   0  0  0  0  0  0  0  0  0  0  0  0
   32.6213   35.6842   60.7762 H   0  0  0  0  0  0  0  0  0  0  0  0
   31.4858   34.4391   61.3498 H   0  0  0  0  0  0  0  0  0  0  0  0
   31.9146   34.5256   59.6245 H   0  0  0  0  0  0  0  0  0  0  0  0
   32.7579   41.0907   58.8855 H   0  0  0  0  0  0  0  0  0  0  0  0
   33.4870   39.9287   60.0198 H   0  0  0  0  0  0  0  0  0  0  0  0
   34.5243   40.8750   58.9258 H   0  0  0  0  0  0  0  0  0  0  0  0
  1  2  1  0  0  0  0
  1 17  1  0  0  0  0
  1 18  1  0  0  0  0
  1 19  1  0  0  0  0
  2  3  1  0  0  0  0
  2 20  1  0  0  0  0
  2 21  1  0  0  0  0
  3  4  1  0  0  0  0
  4  5  2  0  0  0  0
  4  6  1  0  0  0  0
  6 16  2  0  0  0  0
  6  7  1  0  0  0  0
  7  8  2  0  0  0  0
  7 22  1  0  0  0  0
  8  9  1  0  0  0  0
  8 14  1  0  0  0  0
  9 10  2  0  0  0  0
  9 11  1  0  0  0  0
 11 12  1  0  0  0  0
 12 13  1  0  0  0  0
 12 23  1  0  0  0  0
 12 24  1  0  0  0  0
 13 25  1  0  0  0  0
 13 26  1  0  0  0  0
 13 27  1  0  0  0  0
 14 15  1  0  0  0  0
 14 16  1  0  0  0  0
 15 28  1  0  0  0  0
 15 29  1  0  0  0  0
 15 30  1  0  0  0  0
M  END
$$$$
