ZINC000000009177      none
 OpenBabel11202420153D

 30 33  0  0  0  0  0  0  0  0999 V2000
   30.6716   39.4928   65.5035 F   0  0  0  0  0  0  0  0  0  0  0  0
   30.9136   38.6143   64.5061 C   0  0  0  0  0  0  0  0  0  0  0  0
   30.2040   38.7039   63.3195 C   0  0  0  0  0  0  0  0  0  0  0  0
   30.4478   37.8090   62.2982 C   0  0  0  0  0  0  0  0  0  0  0  0
   31.4099   36.8132   62.4616 C   0  0  0  0  0  0  0  0  0  0  0  0
   31.6755   35.8494   61.3674 C   0  0  0  0  0  0  0  0  0  0  0  0
   31.5417   34.5471   61.4327 N   0  0  0  0  0  0  0  0  0  0  0  0
   31.8827   33.9697   60.2056 N   0  0  0  0  0  0  0  0  0  0  0  0
   31.8636   33.0203   60.0075 H   0  0  0  0  0  0  0  0  0  0  0  0
   32.2485   34.9563   59.3260 C   0  0  0  0  0  0  0  0  0  0  0  0
   32.6711   34.9480   57.9975 C   0  0  0  0  0  0  0  0  0  0  0  0
   32.9728   36.1189   57.3675 C   0  0  0  0  0  0  0  0  0  0  0  0
   32.8636   37.3409   58.0412 C   0  0  0  0  0  0  0  0  0  0  0  0
   33.1965   38.6057   57.3388 C   0  0  0  0  0  0  0  0  0  0  0  0
   33.6172   38.7314   56.0723 N   0  0  0  0  0  0  0  0  0  0  0  0
   33.7992   39.9892   55.8522 N   0  0  0  0  0  0  0  0  0  0  0  0
   33.5116   40.6465   56.9211 N   0  0  0  0  0  0  0  0  0  0  0  0
   33.5654   41.6100   57.0190 H   0  0  0  0  0  0  0  0  0  0  0  0
   33.1415   39.8233   57.8411 N   0  0  0  0  0  0  0  0  0  0  0  0
   32.4509   37.3731   59.3641 C   0  0  0  0  0  0  0  0  0  0  0  0
   32.1353   36.1790   60.0137 C   0  0  0  0  0  0  0  0  0  0  0  0
   32.1173   36.7234   63.6597 C   0  0  0  0  0  0  0  0  0  0  0  0
   31.8705   37.6262   64.6734 C   0  0  0  0  0  0  0  0  0  0  0  0
   29.4587   39.4754   63.1939 H   0  0  0  0  0  0  0  0  0  0  0  0
   29.8943   37.8799   61.3734 H   0  0  0  0  0  0  0  0  0  0  0  0
   32.7592   34.0120   57.4660 H   0  0  0  0  0  0  0  0  0  0  0  0
   33.2991   36.1034   56.3380 H   0  0  0  0  0  0  0  0  0  0  0  0
   32.3704   38.3150   59.8866 H   0  0  0  0  0  0  0  0  0  0  0  0
   32.8602   35.9507   63.7926 H   0  0  0  0  0  0  0  0  0  0  0  0
   32.4207   37.5597   65.6004 H   0  0  0  0  0  0  0  0  0  0  0  0
  1  2  1  0  0  0  0
  2 23  2  0  0  0  0
  2  3  1  0  0  0  0
  3  4  2  0  0  0  0
  3 24  1  0  0  0  0
  4  5  1  0  0  0  0
  4 25  1  0  0  0  0
  5  6  1  0  0  0  0
  5 22  2  0  0  0  0
  6 21  1  0  0  0  0
  6  7  2  0  0  0  0
  7  8  1  0  0  0  0
  8  9  1  0  0  0  0
  8 10  1  0  0  0  0
 10 21  2  0  0  0  0
 10 11  1  0  0  0  0
 11 12  2  0  0  0  0
 11 26  1  0  0  0  0
 12 13  1  0  0  0  0
 12 27  1  0  0  0  0
 13 14  1  0  0  0  0
 13 20  2  0  0  0  0
 14 19  2  0  0  0  0
 14 15  1  0  0  0  0
 15 16  2  0  0  0  0
 16 17  1  0  0  0  0
 17 18  1  0  0  0  0
 17 19  1  0  0  0  0
 20 21  1  0  0  0  0
 20 28  1  0  0  0  0
 22 23  1  0  0  0  0
 22 29  1  0  0  0  0
 23 30  1  0  0  0  0
M  END
$$$$
