ZINC000000041524      none
 OpenBabel11202420153D

 36 38  0  0  0  0  0  0  0  0999 V2000
   35.5905   40.3069   52.5365 C   0  0  0  0  0  0  0  0  0  0  0  0
   34.8936   40.4154   53.7793 O   0  0  0  0  0  0  0  0  0  0  0  0
   34.5926   39.2552   54.4216 C   0  0  0  0  0  0  0  0  0  0  0  0
   34.9650   38.0351   53.8600 C   0  0  0  0  0  0  0  0  0  0  0  0
   34.6688   36.8517   54.4964 C   0  0  0  0  0  0  0  0  0  0  0  0
   33.9914   36.8648   55.7125 C   0  0  0  0  0  0  0  0  0  0  0  0
   33.6127   38.0946   56.2846 C   0  0  0  0  0  0  0  0  0  0  0  0
   33.9212   39.2921   55.6248 C   0  0  0  0  0  0  0  0  0  0  0  0
   32.9515   37.7967   57.4978 C   0  0  0  0  0  0  0  0  0  0  0  0
   32.9329   36.4460   57.6499 C   0  0  0  0  0  0  0  0  0  0  0  0
   33.5673   35.8688   56.5620 N   0  0  0  0  0  0  0  0  0  0  0  0
   33.7562   34.4315   56.3504 C   0  0  0  0  0  0  0  0  0  0  0  0
   32.2471   36.1195   58.9088 C   0  0  0  0  0  0  0  0  0  0  0  0
   32.0671   34.9925   59.3300 O   0  0  0  0  0  0  0  0  0  0  0  0
   31.8472   37.2437   59.5279 N   0  0  0  0  0  0  0  0  0  0  0  0
   31.1802   37.3119   60.7180 N   0  0  0  0  0  0  0  0  0  0  0  0
   29.8955   36.6034   60.6428 C   0  0  0  0  0  0  0  0  0  0  0  0
   32.0060   36.7897   61.8149 C   0  0  0  0  0  0  0  0  0  0  0  0
   32.2534   38.3852   58.6990 C   0  0  0  0  0  0  0  0  0  0  0  0
   35.7678   41.3031   52.1311 H   0  0  0  0  0  0  0  0  0  0  0  0
   36.5449   39.8052   52.6977 H   0  0  0  0  0  0  0  0  0  0  0  0
   34.9909   39.7297   51.8327 H   0  0  0  0  0  0  0  0  0  0  0  0
   35.4911   38.0185   52.9169 H   0  0  0  0  0  0  0  0  0  0  0  0
   34.9621   35.9120   54.0521 H   0  0  0  0  0  0  0  0  0  0  0  0
   33.6344   40.2393   56.0572 H   0  0  0  0  0  0  0  0  0  0  0  0
   32.9060   34.0308   55.7983 H   0  0  0  0  0  0  0  0  0  0  0  0
   34.6705   34.2652   55.7807 H   0  0  0  0  0  0  0  0  0  0  0  0
   33.8325   33.9292   57.3148 H   0  0  0  0  0  0  0  0  0  0  0  0
   30.0721   35.5554   60.4008 H   0  0  0  0  0  0  0  0  0  0  0  0
   29.3852   36.6733   61.6035 H   0  0  0  0  0  0  0  0  0  0  0  0
   29.2759   37.0557   59.8684 H   0  0  0  0  0  0  0  0  0  0  0  0
   32.9206   37.3775   61.8929 H   0  0  0  0  0  0  0  0  0  0  0  0
   31.4509   36.8558   62.7508 H   0  0  0  0  0  0  0  0  0  0  0  0
   32.2590   35.7484   61.6154 H   0  0  0  0  0  0  0  0  0  0  0  0
   31.3769   38.9516   58.3840 H   0  0  0  0  0  0  0  0  0  0  0  0
   32.9372   39.0278   59.2536 H   0  0  0  0  0  0  0  0  0  0  0  0
  1  2  1  0  0  0  0
  1 20  1  0  0  0  0
  1 21  1  0  0  0  0
  1 22  1  0  0  0  0
  2  3  1  0  0  0  0
  3  8  2  0  0  0  0
  3  4  1  0  0  0  0
  4  5  2  0  0  0  0
  4 23  1  0  0  0  0
  5  6  1  0  0  0  0
  5 24  1  0  0  0  0
  6 11  1  0  0  0  0
  6  7  2  0  0  0  0
  7  8  1  0  0  0  0
  7  9  1  0  0  0  0
  8 25  1  0  0  0  0
  9 19  1  0  0  0  0
  9 10  2  0  0  0  0
 10 11  1  0  0  0  0
 10 13  1  0  0  0  0
 11 12  1  0  0  0  0
 12 26  1  0  0  0  0
 12 27  1  0  0  0  0
 12 28  1  0  0  0  0
 13 14  2  0  0  0  0
 13 15  1  0  0  0  0
 15 16  1  0  0  0  0
 15 19  1  0  0  0  0
 16 17  1  0  0  0  0
 16 18  1  0  0  0  0
 17 29  1  0  0  0  0
 17 30  1  0  0  0  0
 17 31  1  0  0  0  0
 18 32  1  0  0  0  0
 18 33  1  0  0  0  0
 18 34  1  0  0  0  0
 19 35  1  0  0  0  0
 19 36  1  0  0  0  0
M  END
$$$$
