ZINC000000035858      none
 OpenBabel11202420153D

 29 29  0  0  0  0  0  0  0  0999 V2000
   35.1084   32.7203   55.9227 C   0  0  0  0  0  0  0  0  0  0  0  0
   33.9998   33.6146   56.4816 C   0  0  0  0  0  0  0  0  0  0  0  0
   34.2728   34.9769   56.1473 O   0  0  0  0  0  0  0  0  0  0  0  0
   33.3849   35.9008   56.5691 C   0  0  0  0  0  0  0  0  0  0  0  0
   32.4053   35.5578   57.2039 O   0  0  0  0  0  0  0  0  0  0  0  0
   33.5999   37.3147   56.2634 C   0  0  0  0  0  0  0  0  0  0  0  0
   33.1689   38.3411   57.0676 C   0  0  0  0  0  0  0  0  0  0  0  0
   32.4845   38.1743   58.2557 N   0  0  0  0  0  0  0  0  0  0  0  0
   33.5944   39.8494   56.3974 S   0  0  0  0  0  0  0  0  0  0  0  0
   34.3713   39.1033   55.0124 C   0  0  0  0  0  0  0  0  0  0  0  0
   35.0390   39.8626   53.8949 C   0  0  0  0  0  0  0  0  0  0  0  0
   34.2898   37.7836   55.0797 C   0  0  0  0  0  0  0  0  0  0  0  0
   34.8626   36.8624   54.0335 C   0  0  0  0  0  0  0  0  0  0  0  0
   33.8046   36.5853   52.9636 C   0  0  0  0  0  0  0  0  0  0  0  0
   34.9001   31.6813   56.1777 H   0  0  0  0  0  0  0  0  0  0  0  0
   35.1494   32.8272   54.8386 H   0  0  0  0  0  0  0  0  0  0  0  0
   36.0651   33.0155   56.3533 H   0  0  0  0  0  0  0  0  0  0  0  0
   33.9587   33.5077   57.5656 H   0  0  0  0  0  0  0  0  0  0  0  0
   33.0431   33.3195   56.0510 H   0  0  0  0  0  0  0  0  0  0  0  0
   32.2768   37.2820   58.5746 H   0  0  0  0  0  0  0  0  0  0  0  0
   32.2115   38.9493   58.7712 H   0  0  0  0  0  0  0  0  0  0  0  0
   34.3095   40.0746   53.1131 H   0  0  0  0  0  0  0  0  0  0  0  0
   35.4401   40.7996   54.2813 H   0  0  0  0  0  0  0  0  0  0  0  0
   35.8502   39.2630   53.4822 H   0  0  0  0  0  0  0  0  0  0  0  0
   35.1619   35.9240   54.5003 H   0  0  0  0  0  0  0  0  0  0  0  0
   35.7314   37.3321   53.5723 H   0  0  0  0  0  0  0  0  0  0  0  0
   34.2190   35.9190   52.2070 H   0  0  0  0  0  0  0  0  0  0  0  0
   32.9358   36.1155   53.4248 H   0  0  0  0  0  0  0  0  0  0  0  0
   33.5053   37.5237   52.4969 H   0  0  0  0  0  0  0  0  0  0  0  0
  1  2  1  0  0  0  0
  1 15  1  0  0  0  0
  1 16  1  0  0  0  0
  1 17  1  0  0  0  0
  2  3  1  0  0  0  0
  2 18  1  0  0  0  0
  2 19  1  0  0  0  0
  3  4  1  0  0  0  0
  4  5  2  0  0  0  0
  4  6  1  0  0  0  0
  6 12  1  0  0  0  0
  6  7  2  0  0  0  0
  7  8  1  0  0  0  0
  7  9  1  0  0  0  0
  8 20  1  0  0  0  0
  8 21  1  0  0  0  0
  9 10  1  0  0  0  0
 10 11  1  0  0  0  0
 10 12  2  0  0  0  0
 11 22  1  0  0  0  0
 11 23  1  0  0  0  0
 11 24  1  0  0  0  0
 12 13  1  0  0  0  0
 13 14  1  0  0  0  0
 13 25  1  0  0  0  0
 13 26  1  0  0  0  0
 14 27  1  0  0  0  0
 14 28  1  0  0  0  0
 14 29  1  0  0  0  0
M  END
$$$$
