ZINC000000043515      none
 OpenBabel11202420153D

 32 33  0  0  0  0  0  0  0  0999 V2000
   31.0863   36.8924   66.6870 O   0  0  0  0  0  0  0  0  0  0  0  0
   30.8826   38.0895   66.7396 C   0  0  0  0  0  0  0  0  0  0  0  0
   30.7888   38.7643   67.8930 N   0  0  0  0  0  0  0  0  0  0  0  0
   30.5376   40.1874   67.6031 C   0  0  0  0  0  0  0  0  0  0  0  0
   30.5004   40.2454   66.0636 C   0  0  0  0  0  0  0  0  0  0  0  0
   30.7310   38.8533   65.6498 N   0  0  0  0  0  0  0  0  0  0  0  0
   30.7819   38.4154   64.3761 C   0  0  0  0  0  0  0  0  0  0  0  0
   30.6305   39.1974   63.4581 O   0  0  0  0  0  0  0  0  0  0  0  0
   31.0007   37.1103   64.1205 N   0  0  0  0  0  0  0  0  0  0  0  0
   31.0560   36.6343   62.7361 C   0  0  0  0  0  0  0  0  0  0  0  0
   32.1869   37.3506   61.9952 C   0  0  0  0  0  0  0  0  0  0  0  0
   32.2448   36.8535   60.5495 C   0  0  0  0  0  0  0  0  0  0  0  0
   30.9135   37.1481   59.8552 C   0  0  0  0  0  0  0  0  0  0  0  0
   29.7826   36.4317   60.5960 C   0  0  0  0  0  0  0  0  0  0  0  0
   29.7247   36.9288   62.0418 C   0  0  0  0  0  0  0  0  0  0  0  0
   30.8719   38.3777   68.7787 H   0  0  0  0  0  0  0  0  0  0  0  0
   31.3474   40.8062   67.9898 H   0  0  0  0  0  0  0  0  0  0  0  0
   29.5814   40.5020   68.0211 H   0  0  0  0  0  0  0  0  0  0  0  0
   31.2917   40.8930   65.6859 H   0  0  0  0  0  0  0  0  0  0  0  0
   29.5265   40.5911   65.7172 H   0  0  0  0  0  0  0  0  0  0  0  0
   31.1215   36.4861   64.8530 H   0  0  0  0  0  0  0  0  0  0  0  0
   31.2400   35.5599   62.7282 H   0  0  0  0  0  0  0  0  0  0  0  0
   32.0031   38.4250   62.0030 H   0  0  0  0  0  0  0  0  0  0  0  0
   33.1354   37.1408   62.4898 H   0  0  0  0  0  0  0  0  0  0  0  0
   32.4287   35.7791   60.5417 H   0  0  0  0  0  0  0  0  0  0  0  0
   33.0504   37.3638   60.0217 H   0  0  0  0  0  0  0  0  0  0  0  0
   30.9547   36.7938   58.8252 H   0  0  0  0  0  0  0  0  0  0  0  0
   30.7296   38.2224   59.8630 H   0  0  0  0  0  0  0  0  0  0  0  0
   29.9665   35.3573   60.5883 H   0  0  0  0  0  0  0  0  0  0  0  0
   28.8341   36.6415   60.1015 H   0  0  0  0  0  0  0  0  0  0  0  0
   28.9191   36.4184   62.5697 H   0  0  0  0  0  0  0  0  0  0  0  0
   29.5408   38.0031   62.0495 H   0  0  0  0  0  0  0  0  0  0  0  0
  1  2  2  0  0  0  0
  2  6  1  0  0  0  0
  2  3  1  0  0  0  0
  3  4  1  0  0  0  0
  3 16  1  0  0  0  0
  4  5  1  0  0  0  0
  4 17  1  0  0  0  0
  4 18  1  0  0  0  0
  5  6  1  0  0  0  0
  5 19  1  0  0  0  0
  5 20  1  0  0  0  0
  6  7  1  0  0  0  0
  7  8  2  0  0  0  0
  7  9  1  0  0  0  0
  9 10  1  0  0  0  0
  9 21  1  0  0  0  0
 10 15  1  0  0  0  0
 10 11  1  0  0  0  0
 10 22  1  0  0  0  0
 11 12  1  0  0  0  0
 11 23  1  0  0  0  0
 11 24  1  0  0  0  0
 12 13  1  0  0  0  0
 12 25  1  0  0  0  0
 12 26  1  0  0  0  0
 13 14  1  0  0  0  0
 13 27  1  0  0  0  0
 13 28  1  0  0  0  0
 14 15  1  0  0  0  0
 14 29  1  0  0  0  0
 14 30  1  0  0  0  0
 15 31  1  0  0  0  0
 15 32  1  0  0  0  0
M  END
$$$$
