ZINC000000057679      none
 OpenBabel11202420153D

 28 30  0  0  0  0  0  0  0  0999 V2000
   32.4548   34.8426   58.6779 O   0  0  0  0  0  0  0  0  0  0  0  0
   32.4487   35.9858   59.1039 C   0  0  0  0  0  0  0  0  0  0  0  0
   32.0517   36.2737   60.4293 C   0  0  0  0  0  0  0  0  0  0  0  0
   32.0584   37.5632   60.8666 C   0  0  0  0  0  0  0  0  0  0  0  0
   31.6408   37.8440   62.2528 C   0  0  0  0  0  0  0  0  0  0  0  0
   30.5490   38.6813   62.5000 C   0  0  0  0  0  0  0  0  0  0  0  0
   30.1622   38.9405   63.7961 C   0  0  0  0  0  0  0  0  0  0  0  0
   30.8557   38.3724   64.8572 C   0  0  0  0  0  0  0  0  0  0  0  0
   30.4708   38.6290   66.1335 O   0  0  0  0  0  0  0  0  0  0  0  0
   31.9416   37.5380   64.6162 C   0  0  0  0  0  0  0  0  0  0  0  0
   32.3352   37.2733   63.3233 C   0  0  0  0  0  0  0  0  0  0  0  0
   32.4253   38.5890   60.0828 O   0  0  0  0  0  0  0  0  0  0  0  0
   32.8253   38.4140   58.8060 C   0  0  0  0  0  0  0  0  0  0  0  0
   33.2039   39.4978   58.0231 C   0  0  0  0  0  0  0  0  0  0  0  0
   33.6037   39.2980   56.7190 C   0  0  0  0  0  0  0  0  0  0  0  0
   33.6330   38.0221   56.1753 C   0  0  0  0  0  0  0  0  0  0  0  0
   33.2615   36.9342   56.9351 C   0  0  0  0  0  0  0  0  0  0  0  0
   32.8554   37.1235   58.2549 C   0  0  0  0  0  0  0  0  0  0  0  0
   31.7455   35.4766   61.0906 H   0  0  0  0  0  0  0  0  0  0  0  0
   30.0098   39.1245   61.6758 H   0  0  0  0  0  0  0  0  0  0  0  0
   29.3215   39.5908   63.9881 H   0  0  0  0  0  0  0  0  0  0  0  0
   31.0117   38.1897   66.8039 H   0  0  0  0  0  0  0  0  0  0  0  0
   32.4776   37.0976   65.4440 H   0  0  0  0  0  0  0  0  0  0  0  0
   33.1791   36.6257   63.1368 H   0  0  0  0  0  0  0  0  0  0  0  0
   33.1847   40.4957   58.4358 H   0  0  0  0  0  0  0  0  0  0  0  0
   33.8974   40.1434   56.1145 H   0  0  0  0  0  0  0  0  0  0  0  0
   33.9481   37.8808   55.1520 H   0  0  0  0  0  0  0  0  0  0  0  0
   33.2851   35.9414   56.5108 H   0  0  0  0  0  0  0  0  0  0  0  0
  1  2  2  0  0  0  0
  2 18  1  0  0  0  0
  2  3  1  0  0  0  0
  3  4  2  0  0  0  0
  3 19  1  0  0  0  0
  4  5  1  0  0  0  0
  4 12  1  0  0  0  0
  5 11  2  0  0  0  0
  5  6  1  0  0  0  0
  6  7  2  0  0  0  0
  6 20  1  0  0  0  0
  7  8  1  0  0  0  0
  7 21  1  0  0  0  0
  8  9  1  0  0  0  0
  8 10  2  0  0  0  0
  9 22  1  0  0  0  0
 10 11  1  0  0  0  0
 10 23  1  0  0  0  0
 11 24  1  0  0  0  0
 12 13  1  0  0  0  0
 13 18  2  0  0  0  0
 13 14  1  0  0  0  0
 14 15  2  0  0  0  0
 14 25  1  0  0  0  0
 15 16  1  0  0  0  0
 15 26  1  0  0  0  0
 16 17  2  0  0  0  0
 16 27  1  0  0  0  0
 17 18  1  0  0  0  0
 17 28  1  0  0  0  0
M  END
$$$$
