ZINC000000001065      none
 OpenBabel11202420153D

 30 31  0  0  1  0  0  0  0  0999 V2000
   33.2906   40.8222   59.1531 N   0  0  0  0  0  0  0  0  0  0  0  0
   33.2127   39.5863   58.5616 C   0  0  0  0  0  0  0  0  0  0  0  0
   32.7560   38.5717   59.2611 N   0  0  0  0  0  0  0  0  0  0  0  0
   32.6623   37.3489   58.7257 C   0  0  0  0  0  0  0  0  0  0  0  0
   33.0560   37.1409   57.3989 C   0  0  0  0  0  0  0  0  0  0  0  0
   32.8572   35.8293   57.1212 N   0  0  0  0  0  0  0  0  0  0  0  0
   32.3813   35.2332   58.1751 C   0  0  0  0  0  0  0  0  0  0  0  0
   32.2386   36.1336   59.1909 N   0  0  0  0  0  0  0  0  0  0  0  0
   31.7309   35.8495   60.5355 C   0  0  0  0  0  0  0  0  0  0  0  0
   30.7388   36.9393   60.9467 C   0  0  0  0  0  0  0  0  0  0  0  0
   30.2085   36.6428   62.3508 C   0  0  1  0  0  0  0  0  0  0  0  0
   29.7066   35.6751   62.3528 H   0  0  0  0  0  0  0  0  0  0  0  0
   31.2976   36.6164   63.2756 O   0  0  0  0  0  0  0  0  0  0  0  0
   29.2164   37.7325   62.7621 C   0  0  0  0  0  0  0  0  0  0  0  0
   29.8741   39.0012   62.7594 O   0  0  0  0  0  0  0  0  0  0  0  0
   33.5457   38.2416   56.6575 C   0  0  0  0  0  0  0  0  0  0  0  0
   33.9006   38.1063   55.4990 O   0  0  0  0  0  0  0  0  0  0  0  0
   33.6110   39.4468   57.2655 N   0  0  0  0  0  0  0  0  0  0  0  0
   33.9430   40.2163   56.7772 H   0  0  0  0  0  0  0  0  0  0  0  0
   33.0107   40.9372   60.0747 H   0  0  0  0  0  0  0  0  0  0  0  0
   33.6256   41.5806   58.6497 H   0  0  0  0  0  0  0  0  0  0  0  0
   32.1338   34.1838   58.2362 H   0  0  0  0  0  0  0  0  0  0  0  0
   32.5616   35.8296   61.2408 H   0  0  0  0  0  0  0  0  0  0  0  0
   31.2291   34.8820   60.5375 H   0  0  0  0  0  0  0  0  0  0  0  0
   29.9081   36.9595   60.2412 H   0  0  0  0  0  0  0  0  0  0  0  0
   31.2407   37.9070   60.9447 H   0  0  0  0  0  0  0  0  0  0  0  0
   31.0345   36.4332   64.1880 H   0  0  0  0  0  0  0  0  0  0  0  0
   28.8386   37.5212   63.7624 H   0  0  0  0  0  0  0  0  0  0  0  0
   28.3857   37.7525   62.0566 H   0  0  0  0  0  0  0  0  0  0  0  0
   30.6256   39.0560   63.3656 H   0  0  0  0  0  0  0  0  0  0  0  0
  1  2  1  0  0  0  0
  1 20  1  0  0  0  0
  1 21  1  0  0  0  0
  2 18  1  0  0  0  0
  2  3  2  0  0  0  0
  3  4  1  0  0  0  0
  4  8  1  0  0  0  0
  4  5  2  0  0  0  0
  5  6  1  0  0  0  0
  5 16  1  0  0  0  0
  6  7  2  0  0  0  0
  7  8  1  0  0  0  0
  7 22  1  0  0  0  0
  8  9  1  0  0  0  0
  9 10  1  0  0  0  0
  9 23  1  0  0  0  0
  9 24  1  0  0  0  0
 10 11  1  0  0  0  0
 10 25  1  0  0  0  0
 10 26  1  0  0  0  0
 11 12  1  1  0  0  0
 11 13  1  0  0  0  0
 11 14  1  0  0  0  0
 13 27  1  0  0  0  0
 14 15  1  0  0  0  0
 14 28  1  0  0  0  0
 14 29  1  0  0  0  0
 15 30  1  0  0  0  0
 16 17  2  0  0  0  0
 16 18  1  0  0  0  0
 18 19  1  0  0  0  0
M  END
$$$$
