ZINC000000039840      none
 OpenBabel11202420153D

 25 27  0  0  0  0  0  0  0  0999 V2000
   34.0364   36.8013   53.4622 C   0  0  0  0  0  0  0  0  0  0  0  0
   33.6143   36.8208   54.9087 C   0  0  0  0  0  0  0  0  0  0  0  0
   33.5602   37.8946   55.6911 C   0  0  0  0  0  0  0  0  0  0  0  0
   33.1279   37.4987   56.9447 N   0  0  0  0  0  0  0  0  0  0  0  0
   32.9182   36.1620   56.9156 C   0  0  0  0  0  0  0  0  0  0  0  0
   32.5031   35.7583   58.1076 N   0  0  0  0  0  0  0  0  0  0  0  0
   32.4294   36.7954   58.9373 C   0  0  0  0  0  0  0  0  0  0  0  0
   32.8225   37.9290   58.2271 C   0  0  0  0  0  0  0  0  0  0  0  0
   32.8299   39.1747   58.8758 C   0  0  0  0  0  0  0  0  0  0  0  0
   33.1654   40.1800   58.2740 O   0  0  0  0  0  0  0  0  0  0  0  0
   32.4667   39.2467   60.1730 N   0  0  0  0  0  0  0  0  0  0  0  0
   32.4742   40.1056   60.6236 H   0  0  0  0  0  0  0  0  0  0  0  0
   32.0892   38.1485   60.8497 C   0  0  0  0  0  0  0  0  0  0  0  0
   31.7637   38.2537   62.0166 O   0  0  0  0  0  0  0  0  0  0  0  0
   32.0621   36.9348   60.2673 N   0  0  0  0  0  0  0  0  0  0  0  0
   31.6451   35.7613   61.0388 C   0  0  0  0  0  0  0  0  0  0  0  0
   33.2172   35.7256   55.6520 N   0  0  0  0  0  0  0  0  0  0  0  0
   33.1610   34.8103   55.3356 H   0  0  0  0  0  0  0  0  0  0  0  0
   35.1122   36.6372   53.3997 H   0  0  0  0  0  0  0  0  0  0  0  0
   33.5155   35.9973   52.9424 H   0  0  0  0  0  0  0  0  0  0  0  0
   33.7870   37.7555   52.9980 H   0  0  0  0  0  0  0  0  0  0  0  0
   33.8113   38.9034   55.3984 H   0  0  0  0  0  0  0  0  0  0  0  0
   31.3966   36.0647   62.0558 H   0  0  0  0  0  0  0  0  0  0  0  0
   30.7702   35.3104   60.5702 H   0  0  0  0  0  0  0  0  0  0  0  0
   32.4580   35.0357   61.0645 H   0  0  0  0  0  0  0  0  0  0  0  0
  1  2  1  0  0  0  0
  1 19  1  0  0  0  0
  1 20  1  0  0  0  0
  1 21  1  0  0  0  0
  2 17  1  0  0  0  0
  2  3  2  0  0  0  0
  3  4  1  0  0  0  0
  3 22  1  0  0  0  0
  4  8  1  0  0  0  0
  4  5  1  0  0  0  0
  5  6  2  0  0  0  0
  5 17  1  0  0  0  0
  6  7  1  0  0  0  0
  7 15  1  0  0  0  0
  7  8  2  0  0  0  0
  8  9  1  0  0  0  0
  9 10  2  0  0  0  0
  9 11  1  0  0  0  0
 11 12  1  0  0  0  0
 11 13  1  0  0  0  0
 13 14  2  0  0  0  0
 13 15  1  0  0  0  0
 15 16  1  0  0  0  0
 16 23  1  0  0  0  0
 16 24  1  0  0  0  0
 16 25  1  0  0  0  0
 17 18  1  0  0  0  0
M  END
$$$$
