ZINC000000054845      none
 OpenBabel11202420153D

 29 31  0  0  0  0  0  0  0  0999 V2000
   33.0253   39.0444   58.6802 O   0  0  0  0  0  0  0  0  0  0  0  0
   33.0056   37.9139   58.2369 C   0  0  0  0  0  0  0  0  0  0  0  0
   33.3498   37.5235   56.8534 C   0  0  0  0  0  0  0  0  0  0  0  0
   33.7651   38.2157   55.7274 C   0  0  0  0  0  0  0  0  0  0  0  0
   34.0177   37.5266   54.5512 C   0  0  0  0  0  0  0  0  0  0  0  0
   33.8571   36.1549   54.4945 C   0  0  0  0  0  0  0  0  0  0  0  0
   33.4417   35.4490   55.6130 C   0  0  0  0  0  0  0  0  0  0  0  0
   33.1860   36.1242   56.7954 C   0  0  0  0  0  0  0  0  0  0  0  0
   32.7423   35.7130   58.1442 C   0  0  0  0  0  0  0  0  0  0  0  0
   32.4946   34.5763   58.4930 O   0  0  0  0  0  0  0  0  0  0  0  0
   32.6588   36.8084   58.9206 N   0  0  0  0  0  0  0  0  0  0  0  0
   32.2680   36.7984   60.2658 N   0  0  0  0  0  0  0  0  0  0  0  0
   31.6698   37.8308   60.7752 C   0  0  0  0  0  0  0  0  0  0  0  0
   31.3585   37.8660   62.2165 C   0  0  0  0  0  0  0  0  0  0  0  0
   30.7197   38.9783   62.7695 C   0  0  0  0  0  0  0  0  0  0  0  0
   30.4257   39.0015   64.1170 C   0  0  0  0  0  0  0  0  0  0  0  0
   30.7736   37.9319   64.9228 C   0  0  0  0  0  0  0  0  0  0  0  0
   31.4121   36.8294   64.3830 C   0  0  0  0  0  0  0  0  0  0  0  0
   31.7063   36.7896   63.0360 C   0  0  0  0  0  0  0  0  0  0  0  0
   33.8923   39.2876   55.7660 H   0  0  0  0  0  0  0  0  0  0  0  0
   34.3418   38.0654   53.6732 H   0  0  0  0  0  0  0  0  0  0  0  0
   34.0570   35.6294   53.5724 H   0  0  0  0  0  0  0  0  0  0  0  0
   33.3176   34.3773   55.5627 H   0  0  0  0  0  0  0  0  0  0  0  0
   31.3999   38.6645   60.1439 H   0  0  0  0  0  0  0  0  0  0  0  0
   30.4523   39.8161   62.1426 H   0  0  0  0  0  0  0  0  0  0  0  0
   29.9275   39.8588   64.5449 H   0  0  0  0  0  0  0  0  0  0  0  0
   30.5453   37.9574   65.9782 H   0  0  0  0  0  0  0  0  0  0  0  0
   31.6804   35.9978   65.0177 H   0  0  0  0  0  0  0  0  0  0  0  0
   32.2040   35.9281   62.6157 H   0  0  0  0  0  0  0  0  0  0  0  0
  1  2  2  0  0  0  0
  2 11  1  0  0  0  0
  2  3  1  0  0  0  0
  3  8  2  0  0  0  0
  3  4  1  0  0  0  0
  4  5  2  0  0  0  0
  4 20  1  0  0  0  0
  5  6  1  0  0  0  0
  5 21  1  0  0  0  0
  6  7  2  0  0  0  0
  6 22  1  0  0  0  0
  7  8  1  0  0  0  0
  7 23  1  0  0  0  0
  8  9  1  0  0  0  0
  9 10  2  0  0  0  0
  9 11  1  0  0  0  0
 11 12  1  0  0  0  0
 12 13  2  0  0  0  0
 13 14  1  0  0  0  0
 13 24  1  0  0  0  0
 14 19  2  0  0  0  0
 14 15  1  0  0  0  0
 15 16  2  0  0  0  0
 15 25  1  0  0  0  0
 16 17  1  0  0  0  0
 16 26  1  0  0  0  0
 17 18  2  0  0  0  0
 17 27  1  0  0  0  0
 18 19  1  0  0  0  0
 18 28  1  0  0  0  0
 19 29  1  0  0  0  0
M  END
$$$$
