ZINC000000046006      none
 OpenBabel11202420153D

 45 48  0  0  0  0  0  0  0  0999 V2000
   32.3466   34.9596   53.4216 C   0  0  0  0  0  0  0  0  0  0  0  0
   33.7122   35.0854   54.1001 C   0  0  0  0  0  0  0  0  0  0  0  0
   33.7598   36.3276   54.8752 N   0  0  0  0  0  0  0  0  0  0  0  0
   34.1805   37.5503   54.3827 C   0  0  0  0  0  0  0  0  0  0  0  0
   34.6474   37.9466   53.1330 C   0  0  0  0  0  0  0  0  0  0  0  0
   35.0053   39.2595   52.9147 C   0  0  0  0  0  0  0  0  0  0  0  0
   34.9057   40.1962   53.9320 C   0  0  0  0  0  0  0  0  0  0  0  0
   34.4460   39.8227   55.1765 C   0  0  0  0  0  0  0  0  0  0  0  0
   34.0805   38.4995   55.4102 C   0  0  0  0  0  0  0  0  0  0  0  0
   33.5639   37.7826   56.5914 C   0  0  0  0  0  0  0  0  0  0  0  0
   33.2587   38.1757   57.8881 C   0  0  0  0  0  0  0  0  0  0  0  0
   32.7742   37.2331   58.7959 C   0  0  0  0  0  0  0  0  0  0  0  0
   32.4464   37.6358   60.1722 C   0  0  0  0  0  0  0  0  0  0  0  0
   31.9939   36.7542   61.0191 N   0  0  0  0  0  0  0  0  0  0  0  0
   31.6888   37.1290   62.2999 C   0  0  0  0  0  0  0  0  0  0  0  0
   30.4021   37.5776   62.6108 C   0  0  0  0  0  0  0  0  0  0  0  0
   30.0913   37.9499   63.9032 C   0  0  0  0  0  0  0  0  0  0  0  0
   31.0513   37.8939   64.8946 C   0  0  0  0  0  0  0  0  0  0  0  0
   32.3426   37.4531   64.5970 C   0  0  0  0  0  0  0  0  0  0  0  0
   33.3688   37.3940   65.6600 C   0  0  0  0  0  0  0  0  0  0  0  0
   33.0584   37.7658   66.9177 N   0  0  0  0  0  0  0  0  0  0  0  0
   34.4922   37.0102   65.3995 O   0  0  0  0  0  0  0  0  0  0  0  0
   32.6622   37.0696   63.2960 C   0  0  0  0  0  0  0  0  0  0  0  0
   32.6000   35.9013   58.3932 C   0  0  0  0  0  0  0  0  0  0  0  0
   32.9003   35.5173   57.1198 C   0  0  0  0  0  0  0  0  0  0  0  0
   33.3856   36.4454   56.1989 C   0  0  0  0  0  0  0  0  0  0  0  0
   32.1919   35.8092   52.7564 H   0  0  0  0  0  0  0  0  0  0  0  0
   32.3112   34.0353   52.8449 H   0  0  0  0  0  0  0  0  0  0  0  0
   31.5639   34.9447   54.1801 H   0  0  0  0  0  0  0  0  0  0  0  0
   34.4948   35.1002   53.3415 H   0  0  0  0  0  0  0  0  0  0  0  0
   33.8670   34.2359   54.7653 H   0  0  0  0  0  0  0  0  0  0  0  0
   34.7290   37.2250   52.3336 H   0  0  0  0  0  0  0  0  0  0  0  0
   35.3670   39.5612   51.9428 H   0  0  0  0  0  0  0  0  0  0  0  0
   35.1896   41.2219   53.7487 H   0  0  0  0  0  0  0  0  0  0  0  0
   34.3694   40.5537   55.9677 H   0  0  0  0  0  0  0  0  0  0  0  0
   33.3949   39.2032   58.1914 H   0  0  0  0  0  0  0  0  0  0  0  0
   32.5806   38.6621   60.4811 H   0  0  0  0  0  0  0  0  0  0  0  0
   29.6479   37.6284   61.8394 H   0  0  0  0  0  0  0  0  0  0  0  0
   29.0944   38.2915   64.1392 H   0  0  0  0  0  0  0  0  0  0  0  0
   30.8026   38.1913   65.9025 H   0  0  0  0  0  0  0  0  0  0  0  0
   32.1618   38.0721   67.1256 H   0  0  0  0  0  0  0  0  0  0  0  0
   33.7315   37.7271   67.6150 H   0  0  0  0  0  0  0  0  0  0  0  0
   33.6592   36.7278   63.0607 H   0  0  0  0  0  0  0  0  0  0  0  0
   32.2252   35.1735   59.0976 H   0  0  0  0  0  0  0  0  0  0  0  0
   32.7615   34.4883   56.8226 H   0  0  0  0  0  0  0  0  0  0  0  0
  1  2  1  0  0  0  0
  1 27  1  0  0  0  0
  1 28  1  0  0  0  0
  1 29  1  0  0  0  0
  2  3  1  0  0  0  0
  2 30  1  0  0  0  0
  2 31  1  0  0  0  0
  3 26  1  0  0  0  0
  3  4  1  0  0  0  0
  4  9  2  0  0  0  0
  4  5  1  0  0  0  0
  5  6  2  0  0  0  0
  5 32  1  0  0  0  0
  6  7  1  0  0  0  0
  6 33  1  0  0  0  0
  7  8  2  0  0  0  0
  7 34  1  0  0  0  0
  8  9  1  0  0  0  0
  8 35  1  0  0  0  0
  9 10  1  0  0  0  0
 10 26  2  0  0  0  0
 10 11  1  0  0  0  0
 11 12  2  0  0  0  0
 11 36  1  0  0  0  0
 12 13  1  0  0  0  0
 12 24  1  0  0  0  0
 13 14  2  0  0  0  0
 13 37  1  0  0  0  0
 14 15  1  0  0  0  0
 15 23  2  0  0  0  0
 15 16  1  0  0  0  0
 16 17  2  0  0  0  0
 16 38  1  0  0  0  0
 17 18  1  0  0  0  0
 17 39  1  0  0  0  0
 18 19  2  0  0  0  0
 18 40  1  0  0  0  0
 19 20  1  0  0  0  0
 19 23  1  0  0  0  0
 20 21  1  0  0  0  0
 20 22  2  0  0  0  0
 21 41  1  0  0  0  0
 21 42  1  0  0  0  0
 23 43  1  0  0  0  0
 24 25  2  0  0  0  0
 24 44  1  0  0  0  0
 25 26  1  0  0  0  0
 25 45  1  0  0  0  0
M  END
$$$$
