ZINC000000050793      none
 OpenBabel11202420153D

 47 49  0  0  0  0  0  0  0  0999 V2000
   29.3258   41.1118   67.6973 C   0  0  0  0  0  0  0  0  0  0  0  0
   29.1322   39.6020   67.5423 C   0  0  0  0  0  0  0  0  0  0  0  0
   29.4422   39.2118   66.1785 O   0  0  0  0  0  0  0  0  0  0  0  0
   30.7185   38.8685   65.9154 C   0  0  0  0  0  0  0  0  0  0  0  0
   31.5496   38.8945   66.8014 O   0  0  0  0  0  0  0  0  0  0  0  0
   31.1057   38.4618   64.5523 C   0  0  0  0  0  0  0  0  0  0  0  0
   32.1517   37.5507   64.3655 C   0  0  0  0  0  0  0  0  0  0  0  0
   32.5113   37.1740   63.1035 C   0  0  0  0  0  0  0  0  0  0  0  0
   31.8340   37.6985   61.9972 C   0  0  0  0  0  0  0  0  0  0  0  0
   32.1938   37.3222   60.7351 N   0  0  0  0  0  0  0  0  0  0  0  0
   32.1297   36.0659   60.3852 C   0  0  0  0  0  0  0  0  0  0  0  0
   32.5169   35.6610   59.0273 C   0  0  0  0  0  0  0  0  0  0  0  0
   32.4485   34.3143   58.6497 C   0  0  0  0  0  0  0  0  0  0  0  0
   32.8103   33.9408   57.3812 C   0  0  0  0  0  0  0  0  0  0  0  0
   33.2449   34.8984   56.4687 C   0  0  0  0  0  0  0  0  0  0  0  0
   33.6107   34.5151   55.1824 N   0  0  0  0  0  0  0  0  0  0  0  0
   33.5461   33.0542   55.0297 C   0  0  0  0  0  0  0  0  0  0  0  0
   34.0115   32.6727   53.6219 C   0  0  0  0  0  0  0  0  0  0  0  0
   33.2063   33.3551   52.6568 O   0  0  0  0  0  0  0  0  0  0  0  0
   33.2472   34.7796   52.7766 C   0  0  0  0  0  0  0  0  0  0  0  0
   32.7729   35.1826   54.1754 C   0  0  0  0  0  0  0  0  0  0  0  0
   33.3199   36.2379   56.8415 C   0  0  0  0  0  0  0  0  0  0  0  0
   32.9550   36.6207   58.1065 C   0  0  0  0  0  0  0  0  0  0  0  0
   30.7917   38.6131   62.1843 C   0  0  0  0  0  0  0  0  0  0  0  0
   30.4294   38.9862   63.4465 C   0  0  0  0  0  0  0  0  0  0  0  0
   29.0931   41.4047   68.7211 H   0  0  0  0  0  0  0  0  0  0  0  0
   30.3604   41.3706   67.4715 H   0  0  0  0  0  0  0  0  0  0  0  0
   28.6619   41.6358   67.0097 H   0  0  0  0  0  0  0  0  0  0  0  0
   28.0977   39.3433   67.7680 H   0  0  0  0  0  0  0  0  0  0  0  0
   29.7961   39.0781   68.2299 H   0  0  0  0  0  0  0  0  0  0  0  0
   32.6745   37.1459   65.2195 H   0  0  0  0  0  0  0  0  0  0  0  0
   33.3187   36.4715   62.9591 H   0  0  0  0  0  0  0  0  0  0  0  0
   31.7921   35.3244   61.0943 H   0  0  0  0  0  0  0  0  0  0  0  0
   32.1115   33.5708   59.3570 H   0  0  0  0  0  0  0  0  0  0  0  0
   32.7578   32.9023   57.0893 H   0  0  0  0  0  0  0  0  0  0  0  0
   32.5196   32.7185   55.1771 H   0  0  0  0  0  0  0  0  0  0  0  0
   34.1939   32.5814   55.7678 H   0  0  0  0  0  0  0  0  0  0  0  0
   33.9105   31.5962   53.4844 H   0  0  0  0  0  0  0  0  0  0  0  0
   35.0552   32.9598   53.4933 H   0  0  0  0  0  0  0  0  0  0  0  0
   34.2684   35.1285   52.6240 H   0  0  0  0  0  0  0  0  0  0  0  0
   32.5939   35.2267   52.0274 H   0  0  0  0  0  0  0  0  0  0  0  0
   32.8566   36.2632   54.2909 H   0  0  0  0  0  0  0  0  0  0  0  0
   31.7340   34.8810   54.3085 H   0  0  0  0  0  0  0  0  0  0  0  0
   33.6617   36.9768   56.1320 H   0  0  0  0  0  0  0  0  0  0  0  0
   33.0095   37.6604   58.3936 H   0  0  0  0  0  0  0  0  0  0  0  0
   30.2718   39.0214   61.3302 H   0  0  0  0  0  0  0  0  0  0  0  0
   29.6227   39.6896   63.5911 H   0  0  0  0  0  0  0  0  0  0  0  0
  1  2  1  0  0  0  0
  1 26  1  0  0  0  0
  1 27  1  0  0  0  0
  1 28  1  0  0  0  0
  2  3  1  0  0  0  0
  2 29  1  0  0  0  0
  2 30  1  0  0  0  0
  3  4  1  0  0  0  0
  4  5  2  0  0  0  0
  4  6  1  0  0  0  0
  6 25  2  0  0  0  0
  6  7  1  0  0  0  0
  7  8  2  0  0  0  0
  7 31  1  0  0  0  0
  8  9  1  0  0  0  0
  8 32  1  0  0  0  0
  9 10  1  0  0  0  0
  9 24  2  0  0  0  0
 10 11  2  0  0  0  0
 11 12  1  0  0  0  0
 11 33  1  0  0  0  0
 12 23  2  0  0  0  0
 12 13  1  0  0  0  0
 13 14  2  0  0  0  0
 13 34  1  0  0  0  0
 14 15  1  0  0  0  0
 14 35  1  0  0  0  0
 15 16  1  0  0  0  0
 15 22  2  0  0  0  0
 16 21  1  0  0  0  0
 16 17  1  0  0  0  0
 17 18  1  0  0  0  0
 17 36  1  0  0  0  0
 17 37  1  0  0  0  0
 18 19  1  0  0  0  0
 18 38  1  0  0  0  0
 18 39  1  0  0  0  0
 19 20  1  0  0  0  0
 20 21  1  0  0  0  0
 20 40  1  0  0  0  0
 20 41  1  0  0  0  0
 21 42  1  0  0  0  0
 21 43  1  0  0  0  0
 22 23  1  0  0  0  0
 22 44  1  0  0  0  0
 23 45  1  0  0  0  0
 24 25  1  0  0  0  0
 24 46  1  0  0  0  0
 25 47  1  0  0  0  0
M  END
$$$$
