ZINC000000049172      none
 OpenBabel11202420153D

 45 48  0  0  1  0  0  0  0  0999 V2000
   33.5311   35.3841   54.5920 C   0  0  0  0  0  0  0  0  0  0  0  0
   32.8926   34.4949   55.5105 O   0  0  0  0  0  0  0  0  0  0  0  0
   32.6183   34.9806   56.7507 C   0  0  0  0  0  0  0  0  0  0  0  0
   32.9561   36.2844   57.0761 C   0  0  0  0  0  0  0  0  0  0  0  0
   32.6711   36.7785   58.3354 C   0  0  0  0  0  0  0  0  0  0  0  0
   32.0593   35.9708   59.2760 C   0  0  0  0  0  0  0  0  0  0  0  0
   31.7565   36.5126   60.6493 C   0  0  0  0  0  0  0  0  0  0  0  0
   31.8007   35.3723   61.6685 C   0  0  0  0  0  0  0  0  0  0  0  0
   31.5062   35.8990   63.0035 N   0  0  0  0  0  0  0  0  0  0  0  0
   32.4575   36.3502   63.8289 C   0  0  0  0  0  0  0  0  0  0  0  0
   33.6438   36.3775   63.5813 O   0  0  0  0  0  0  0  0  0  0  0  0
   31.8239   36.8210   65.1181 C   0  0  1  0  0  0  0  0  0  0  0  0
   32.2203   36.3351   66.0097 H   0  0  0  0  0  0  0  0  0  0  0  0
   31.9186   38.3783   65.1699 C   0  0  2  0  0  0  0  0  0  0  0  0
   32.9093   38.8161   65.0474 H   0  0  0  0  0  0  0  0  0  0  0  0
   31.1623   38.7572   66.4489 C   0  0  0  0  0  0  0  0  0  0  0  0
   29.8781   38.5330   66.2550 C   0  0  0  0  0  0  0  0  0  0  0  0
   29.6903   37.9893   64.8334 C   0  0  1  0  0  0  0  0  0  0  0  0
   28.6898   38.0798   64.4104 H   0  0  0  0  0  0  0  0  0  0  0  0
   30.8397   38.7669   64.0944 C   0  0  0  0  0  0  0  0  0  0  0  0
   30.3065   36.5561   64.8882 C   0  0  1  0  0  0  0  0  0  0  0  0
   29.8551   35.9216   65.6509 H   0  0  0  0  0  0  0  0  0  0  0  0
   30.2448   35.9598   63.5005 C   0  0  0  0  0  0  0  0  0  0  0  0
   29.2328   35.6029   62.9364 O   0  0  0  0  0  0  0  0  0  0  0  0
   31.7197   34.6691   58.9579 C   0  0  0  0  0  0  0  0  0  0  0  0
   31.9974   34.1694   57.6957 C   0  0  0  0  0  0  0  0  0  0  0  0
   31.6644   32.8889   57.3811 O   0  0  0  0  0  0  0  0  0  0  0  0
   30.3664   32.6745   56.8231 C   0  0  0  0  0  0  0  0  0  0  0  0
   34.4905   35.7015   55.0010 H   0  0  0  0  0  0  0  0  0  0  0  0
   33.6922   34.8725   53.6431 H   0  0  0  0  0  0  0  0  0  0  0  0
   32.8982   36.2568   54.4315 H   0  0  0  0  0  0  0  0  0  0  0  0
   33.4377   36.9161   56.3445 H   0  0  0  0  0  0  0  0  0  0  0  0
   32.9305   37.7964   58.5863 H   0  0  0  0  0  0  0  0  0  0  0  0
   30.7640   36.9634   60.6513 H   0  0  0  0  0  0  0  0  0  0  0  0
   32.4982   37.2658   60.9145 H   0  0  0  0  0  0  0  0  0  0  0  0
   32.7931   34.9215   61.6666 H   0  0  0  0  0  0  0  0  0  0  0  0
   31.0588   34.6190   61.4035 H   0  0  0  0  0  0  0  0  0  0  0  0
   31.6064   39.1428   67.3547 H   0  0  0  0  0  0  0  0  0  0  0  0
   29.0919   38.6992   66.9765 H   0  0  0  0  0  0  0  0  0  0  0  0
   30.6583   39.8409   64.0541 H   0  0  0  0  0  0  0  0  0  0  0  0
   31.0608   38.3504   63.1118 H   0  0  0  0  0  0  0  0  0  0  0  0
   31.2376   34.0416   59.6930 H   0  0  0  0  0  0  0  0  0  0  0  0
   30.2297   31.6126   56.6188 H   0  0  0  0  0  0  0  0  0  0  0  0
   29.6073   33.0094   57.5297 H   0  0  0  0  0  0  0  0  0  0  0  0
   30.2726   33.2380   55.8947 H   0  0  0  0  0  0  0  0  0  0  0  0
  1  2  1  0  0  0  0
  1 29  1  0  0  0  0
  1 30  1  0  0  0  0
  1 31  1  0  0  0  0
  2  3  1  0  0  0  0
  3 26  2  0  0  0  0
  3  4  1  0  0  0  0
  4  5  2  0  0  0  0
  4 32  1  0  0  0  0
  5  6  1  0  0  0  0
  5 33  1  0  0  0  0
  6  7  1  0  0  0  0
  6 25  2  0  0  0  0
  7  8  1  0  0  0  0
  7 34  1  0  0  0  0
  7 35  1  0  0  0  0
  8  9  1  0  0  0  0
  8 36  1  0  0  0  0
  8 37  1  0  0  0  0
  9 23  1  0  0  0  0
  9 10  1  0  0  0  0
 10 11  2  0  0  0  0
 10 12  1  0  0  0  0
 12 13  1  1  0  0  0
 12 21  1  0  0  0  0
 12 14  1  0  0  0  0
 14 15  1  6  0  0  0
 14 20  1  0  0  0  0
 14 16  1  0  0  0  0
 16 17  2  0  0  0  0
 16 38  1  0  0  0  0
 17 18  1  0  0  0  0
 17 39  1  0  0  0  0
 18 19  1  6  0  0  0
 18 20  1  0  0  0  0
 18 21  1  0  0  0  0
 20 40  1  0  0  0  0
 20 41  1  0  0  0  0
 21 22  1  1  0  0  0
 21 23  1  0  0  0  0
 23 24  2  0  0  0  0
 25 26  1  0  0  0  0
 25 42  1  0  0  0  0
 26 27  1  0  0  0  0
 27 28  1  0  0  0  0
 28 43  1  0  0  0  0
 28 44  1  0  0  0  0
 28 45  1  0  0  0  0
M  END
$$$$
