ZINC000000024554      none
 OpenBabel11202420153D

 31 33  0  0  0  0  0  0  0  0999 V2000
   33.7136   36.6726   54.4824 C   0  0  0  0  0  0  0  0  0  0  0  0
   33.7833   37.9124   55.1897 O   0  0  0  0  0  0  0  0  0  0  0  0
   33.4509   37.8905   56.5069 C   0  0  0  0  0  0  0  0  0  0  0  0
   33.0660   36.6963   57.1038 C   0  0  0  0  0  0  0  0  0  0  0  0
   32.7279   36.6663   58.4397 C   0  0  0  0  0  0  0  0  0  0  0  0
   32.7719   37.8386   59.1965 C   0  0  0  0  0  0  0  0  0  0  0  0
   32.4097   37.8105   60.6281 C   0  0  0  0  0  0  0  0  0  0  0  0
   31.4027   38.5209   61.1907 C   0  0  0  0  0  0  0  0  0  0  0  0
   31.4139   38.1821   62.6164 C   0  0  0  0  0  0  0  0  0  0  0  0
   30.6409   38.5674   63.7130 C   0  0  0  0  0  0  0  0  0  0  0  0
   30.9170   38.0580   64.9506 C   0  0  0  0  0  0  0  0  0  0  0  0
   31.9576   37.1493   65.1212 C   0  0  0  0  0  0  0  0  0  0  0  0
   32.2175   36.6469   66.3572 O   0  0  0  0  0  0  0  0  0  0  0  0
   32.7304   36.7533   64.0439 C   0  0  0  0  0  0  0  0  0  0  0  0
   32.4673   37.2650   62.7803 C   0  0  0  0  0  0  0  0  0  0  0  0
   33.0316   37.0737   61.5702 O   0  0  0  0  0  0  0  0  0  0  0  0
   33.1551   39.0427   58.5918 C   0  0  0  0  0  0  0  0  0  0  0  0
   33.1953   40.1883   59.3203 O   0  0  0  0  0  0  0  0  0  0  0  0
   33.4976   39.0604   57.2509 C   0  0  0  0  0  0  0  0  0  0  0  0
   34.0036   36.8302   53.4435 H   0  0  0  0  0  0  0  0  0  0  0  0
   34.3901   35.9529   54.9432 H   0  0  0  0  0  0  0  0  0  0  0  0
   32.6941   36.2892   54.5208 H   0  0  0  0  0  0  0  0  0  0  0  0
   33.0314   35.7889   56.5193 H   0  0  0  0  0  0  0  0  0  0  0  0
   32.4294   35.7364   58.9007 H   0  0  0  0  0  0  0  0  0  0  0  0
   30.7279   39.1992   60.6897 H   0  0  0  0  0  0  0  0  0  0  0  0
   29.8299   39.2691   63.5846 H   0  0  0  0  0  0  0  0  0  0  0  0
   30.3217   38.3584   65.8002 H   0  0  0  0  0  0  0  0  0  0  0  0
   31.6286   36.9792   67.0486 H   0  0  0  0  0  0  0  0  0  0  0  0
   33.5365   36.0484   64.1856 H   0  0  0  0  0  0  0  0  0  0  0  0
   32.9427   40.0744   60.2467 H   0  0  0  0  0  0  0  0  0  0  0  0
   33.7975   39.9862   56.7826 H   0  0  0  0  0  0  0  0  0  0  0  0
  1  2  1  0  0  0  0
  1 20  1  0  0  0  0
  1 21  1  0  0  0  0
  1 22  1  0  0  0  0
  2  3  1  0  0  0  0
  3 19  2  0  0  0  0
  3  4  1  0  0  0  0
  4  5  2  0  0  0  0
  4 23  1  0  0  0  0
  5  6  1  0  0  0  0
  5 24  1  0  0  0  0
  6  7  1  0  0  0  0
  6 17  2  0  0  0  0
  7 16  1  0  0  0  0
  7  8  2  0  0  0  0
  8  9  1  0  0  0  0
  8 25  1  0  0  0  0
  9 15  2  0  0  0  0
  9 10  1  0  0  0  0
 10 11  2  0  0  0  0
 10 26  1  0  0  0  0
 11 12  1  0  0  0  0
 11 27  1  0  0  0  0
 12 13  1  0  0  0  0
 12 14  2  0  0  0  0
 13 28  1  0  0  0  0
 14 15  1  0  0  0  0
 14 29  1  0  0  0  0
 15 16  1  0  0  0  0
 17 18  1  0  0  0  0
 17 19  1  0  0  0  0
 18 30  1  0  0  0  0
 19 31  1  0  0  0  0
M  END
$$$$
