ZINC000000044923      none
 OpenBabel11202420153D

 40 43  0  0  0  0  0  0  0  0999 V2000
   28.8198   36.6582   66.0720 C   0  0  0  0  0  0  0  0  0  0  0  0
   29.7479   36.7877   64.8918 C   0  0  0  0  0  0  0  0  0  0  0  0
   30.9595   36.1211   64.8906 C   0  0  0  0  0  0  0  0  0  0  0  0
   31.8121   36.2372   63.8104 C   0  0  0  0  0  0  0  0  0  0  0  0
   31.4517   37.0252   62.7246 C   0  0  0  0  0  0  0  0  0  0  0  0
   32.3125   37.1454   61.6300 N   0  0  0  0  0  0  0  0  0  0  0  0
   32.2170   36.2626   60.5801 C   0  0  0  0  0  0  0  0  0  0  0  0
   31.7826   34.9780   60.8186 C   0  0  0  0  0  0  0  0  0  0  0  0
   31.6733   34.0597   59.7838 C   0  0  0  0  0  0  0  0  0  0  0  0
   31.1960   32.6571   60.0599 C   0  0  0  0  0  0  0  0  0  0  0  0
   32.0084   34.4458   58.4860 C   0  0  0  0  0  0  0  0  0  0  0  0
   31.9048   33.5193   57.3991 C   0  0  0  0  0  0  0  0  0  0  0  0
   31.8226   32.7843   56.5369 N   0  0  0  0  0  0  0  0  0  0  0  0
   32.4688   35.8197   58.2563 C   0  0  0  0  0  0  0  0  0  0  0  0
   32.8440   36.4446   57.1557 N   0  0  0  0  0  0  0  0  0  0  0  0
   33.1865   37.7212   57.4505 C   0  0  0  0  0  0  0  0  0  0  0  0
   33.6451   38.7939   56.6774 C   0  0  0  0  0  0  0  0  0  0  0  0
   33.9145   39.9943   57.2705 C   0  0  0  0  0  0  0  0  0  0  0  0
   33.7383   40.1641   58.6365 C   0  0  0  0  0  0  0  0  0  0  0  0
   33.2879   39.1209   59.4187 C   0  0  0  0  0  0  0  0  0  0  0  0
   33.0087   37.8936   58.8349 C   0  0  0  0  0  0  0  0  0  0  0  0
   32.5550   36.6804   59.3236 N   0  0  0  0  0  0  0  0  0  0  0  0
   30.2364   37.6981   62.7317 C   0  0  0  0  0  0  0  0  0  0  0  0
   29.3858   37.5727   63.8124 C   0  0  0  0  0  0  0  0  0  0  0  0
   29.0439   37.4398   66.7980 H   0  0  0  0  0  0  0  0  0  0  0  0
   27.7879   36.7595   65.7358 H   0  0  0  0  0  0  0  0  0  0  0  0
   28.9564   35.6813   66.5361 H   0  0  0  0  0  0  0  0  0  0  0  0
   31.2391   35.5086   65.7349 H   0  0  0  0  0  0  0  0  0  0  0  0
   32.7579   35.7158   63.8097 H   0  0  0  0  0  0  0  0  0  0  0  0
   32.9772   37.8516   61.6110 H   0  0  0  0  0  0  0  0  0  0  0  0
   31.5240   34.6810   61.8243 H   0  0  0  0  0  0  0  0  0  0  0  0
   30.1109   32.6172   59.9643 H   0  0  0  0  0  0  0  0  0  0  0  0
   31.6493   31.9715   59.3439 H   0  0  0  0  0  0  0  0  0  0  0  0
   31.4825   32.3683   61.0711 H   0  0  0  0  0  0  0  0  0  0  0  0
   33.7813   38.6740   55.6127 H   0  0  0  0  0  0  0  0  0  0  0  0
   34.2677   40.8198   56.6704 H   0  0  0  0  0  0  0  0  0  0  0  0
   33.9559   41.1195   59.0906 H   0  0  0  0  0  0  0  0  0  0  0  0
   33.1535   39.2588   60.4814 H   0  0  0  0  0  0  0  0  0  0  0  0
   29.9551   38.3151   61.8911 H   0  0  0  0  0  0  0  0  0  0  0  0
   28.4388   38.0917   63.8165 H   0  0  0  0  0  0  0  0  0  0  0  0
  1  2  1  0  0  0  0
  1 25  1  0  0  0  0
  1 26  1  0  0  0  0
  1 27  1  0  0  0  0
  2 24  2  0  0  0  0
  2  3  1  0  0  0  0
  3  4  2  0  0  0  0
  3 28  1  0  0  0  0
  4  5  1  0  0  0  0
  4 29  1  0  0  0  0
  5  6  1  0  0  0  0
  5 23  2  0  0  0  0
  6  7  1  0  0  0  0
  6 30  1  0  0  0  0
  7 22  1  0  0  0  0
  7  8  2  0  0  0  0
  8  9  1  0  0  0  0
  8 31  1  0  0  0  0
  9 10  1  0  0  0  0
  9 11  2  0  0  0  0
 10 32  1  0  0  0  0
 10 33  1  0  0  0  0
 10 34  1  0  0  0  0
 11 12  1  0  0  0  0
 11 14  1  0  0  0  0
 12 13  3  0  0  0  0
 14 22  1  0  0  0  0
 14 15  2  0  0  0  0
 15 16  1  0  0  0  0
 16 21  2  0  0  0  0
 16 17  1  0  0  0  0
 17 18  2  0  0  0  0
 17 35  1  0  0  0  0
 18 19  1  0  0  0  0
 18 36  1  0  0  0  0
 19 20  2  0  0  0  0
 19 37  1  0  0  0  0
 20 21  1  0  0  0  0
 20 38  1  0  0  0  0
 21 22  1  0  0  0  0
 23 24  1  0  0  0  0
 23 39  1  0  0  0  0
 24 40  1  0  0  0  0
M  END
$$$$
