ZINC000000003416      none
 OpenBabel11202420153D

 33 35  0  0  0  0  0  0  0  0999 V2000
   32.8624   36.8741   64.2805 C   0  0  0  0  0  0  0  0  0  0  0  0
   31.5101   37.5383   64.2436 C   0  0  0  0  0  0  0  0  0  0  0  0
   31.1794   38.4861   65.1920 C   0  0  0  0  0  0  0  0  0  0  0  0
   29.9368   39.0924   65.1620 C   0  0  0  0  0  0  0  0  0  0  0  0
   29.0235   38.7558   64.1797 C   0  0  0  0  0  0  0  0  0  0  0  0
   29.3498   37.8126   63.2251 C   0  0  0  0  0  0  0  0  0  0  0  0
   28.3541   37.4469   62.1547 C   0  0  0  0  0  0  0  0  0  0  0  0
   30.5970   37.2018   63.2525 C   0  0  0  0  0  0  0  0  0  0  0  0
   30.9304   36.2463   62.2879 N   0  0  0  0  0  0  0  0  0  0  0  0
   31.5378   36.6360   61.1113 C   0  0  0  0  0  0  0  0  0  0  0  0
   31.8918   35.8277   60.1435 N   0  0  0  0  0  0  0  0  0  0  0  0
   32.4607   36.5423   59.1374 C   0  0  0  0  0  0  0  0  0  0  0  0
   33.0024   36.1914   57.8982 C   0  0  0  0  0  0  0  0  0  0  0  0
   33.5180   37.1681   57.0762 C   0  0  0  0  0  0  0  0  0  0  0  0
   33.5038   38.4984   57.4687 C   0  0  0  0  0  0  0  0  0  0  0  0
   32.9725   38.8612   58.6891 C   0  0  0  0  0  0  0  0  0  0  0  0
   32.4488   37.8908   59.5300 C   0  0  0  0  0  0  0  0  0  0  0  0
   31.8594   37.9221   60.7830 N   0  0  0  0  0  0  0  0  0  0  0  0
   31.7043   38.7106   61.3262 H   0  0  0  0  0  0  0  0  0  0  0  0
   33.5825   37.4853   63.7365 H   0  0  0  0  0  0  0  0  0  0  0  0
   33.1861   36.7663   65.3158 H   0  0  0  0  0  0  0  0  0  0  0  0
   32.7967   35.8902   63.8161 H   0  0  0  0  0  0  0  0  0  0  0  0
   31.8904   38.7511   65.9606 H   0  0  0  0  0  0  0  0  0  0  0  0
   29.6793   39.8305   65.9071 H   0  0  0  0  0  0  0  0  0  0  0  0
   28.0540   39.2314   64.1588 H   0  0  0  0  0  0  0  0  0  0  0  0
   27.7376   36.6170   62.5003 H   0  0  0  0  0  0  0  0  0  0  0  0
   27.7192   38.3065   61.9401 H   0  0  0  0  0  0  0  0  0  0  0  0
   28.8853   37.1526   61.2496 H   0  0  0  0  0  0  0  0  0  0  0  0
   30.7351   35.3094   62.4455 H   0  0  0  0  0  0  0  0  0  0  0  0
   33.0170   35.1574   57.5864 H   0  0  0  0  0  0  0  0  0  0  0  0
   33.9363   36.8965   56.1182 H   0  0  0  0  0  0  0  0  0  0  0  0
   33.9113   39.2551   56.8147 H   0  0  0  0  0  0  0  0  0  0  0  0
   32.9640   39.8987   58.9888 H   0  0  0  0  0  0  0  0  0  0  0  0
  1  2  1  0  0  0  0
  1 20  1  0  0  0  0
  1 21  1  0  0  0  0
  1 22  1  0  0  0  0
  2  8  2  0  0  0  0
  2  3  1  0  0  0  0
  3  4  2  0  0  0  0
  3 23  1  0  0  0  0
  4  5  1  0  0  0  0
  4 24  1  0  0  0  0
  5  6  2  0  0  0  0
  5 25  1  0  0  0  0
  6  7  1  0  0  0  0
  6  8  1  0  0  0  0
  7 26  1  0  0  0  0
  7 27  1  0  0  0  0
  7 28  1  0  0  0  0
  8  9  1  0  0  0  0
  9 10  1  0  0  0  0
  9 29  1  0  0  0  0
 10 18  1  0  0  0  0
 10 11  2  0  0  0  0
 11 12  1  0  0  0  0
 12 17  2  0  0  0  0
 12 13  1  0  0  0  0
 13 14  2  0  0  0  0
 13 30  1  0  0  0  0
 14 15  1  0  0  0  0
 14 31  1  0  0  0  0
 15 16  2  0  0  0  0
 15 32  1  0  0  0  0
 16 17  1  0  0  0  0
 16 33  1  0  0  0  0
 17 18  1  0  0  0  0
 18 19  1  0  0  0  0
M  END
$$$$
