ZINC000000022185      none
 OpenBabel11202420153D

 32 34  0  0  1  0  0  0  0  0999 V2000
   32.7962   36.9919   63.9928 C   0  0  0  0  0  0  0  0  0  0  0  0
   32.3209   37.3520   65.1772 C   0  0  0  0  0  0  0  0  0  0  0  0
   30.8705   37.7617   65.3963 C   0  0  0  0  0  0  0  0  0  0  0  0
   30.7442   38.0953   66.8251 N   0  3  2  0  0  0  0  0  0  0  0  0
   29.7899   38.3747   66.9966 H   0  0  0  0  0  0  0  0  0  0  0  0
   31.6289   39.2106   67.1654 C   0  0  0  0  0  0  0  0  0  0  0  0
   33.0968   38.8252   66.9860 C   0  0  0  0  0  0  0  0  0  0  0  0
   33.1808   37.3916   66.4362 C   0  0  1  0  0  0  0  0  0  0  0  0
   32.4935   36.4707   67.4598 C   0  0  0  0  0  0  0  0  0  0  0  0
   31.0467   36.9253   67.6509 C   0  0  0  0  0  0  0  0  0  0  0  0
   31.9063   36.9759   62.8134 C   0  0  0  0  0  0  0  0  0  0  0  0
   32.4322   37.2280   61.5458 C   0  0  0  0  0  0  0  0  0  0  0  0
   31.5868   37.2048   60.4509 C   0  0  0  0  0  0  0  0  0  0  0  0
   30.2401   36.9404   60.6587 C   0  0  0  0  0  0  0  0  0  0  0  0
   29.7849   36.7043   61.9427 C   0  0  0  0  0  0  0  0  0  0  0  0
   30.6110   36.7271   62.9686 N   0  0  0  0  0  0  0  0  0  0  0  0
   33.8338   36.7103   63.8902 H   0  0  0  0  0  0  0  0  0  0  0  0
   30.2065   36.9344   65.1453 H   0  0  0  0  0  0  0  0  0  0  0  0
   30.6313   38.6329   64.7864 H   0  0  0  0  0  0  0  0  0  0  0  0
   31.4589   39.4978   68.2031 H   0  0  0  0  0  0  0  0  0  0  0  0
   31.4002   40.0580   66.5191 H   0  0  0  0  0  0  0  0  0  0  0  0
   33.5707   39.5123   66.2850 H   0  0  0  0  0  0  0  0  0  0  0  0
   33.6071   38.8768   67.9478 H   0  0  0  0  0  0  0  0  0  0  0  0
   34.2106   37.0900   66.2451 H   0  0  0  0  0  0  0  0  0  0  0  0
   33.0219   36.5265   68.4116 H   0  0  0  0  0  0  0  0  0  0  0  0
   32.5075   35.4436   67.0948 H   0  0  0  0  0  0  0  0  0  0  0  0
   30.8873   37.1775   68.6993 H   0  0  0  0  0  0  0  0  0  0  0  0
   30.3771   36.1109   67.3750 H   0  0  0  0  0  0  0  0  0  0  0  0
   33.4849   37.4344   61.4207 H   0  0  0  0  0  0  0  0  0  0  0  0
   31.9655   37.3925   59.4571 H   0  0  0  0  0  0  0  0  0  0  0  0
   29.5539   36.9197   59.8250 H   0  0  0  0  0  0  0  0  0  0  0  0
   28.7374   36.4987   62.1071 H   0  0  0  0  0  0  0  0  0  0  0  0
  1  2  2  0  0  0  0
  1 11  1  0  0  0  0
  1 17  1  0  0  0  0
  2  8  1  0  0  0  0
  2  3  1  0  0  0  0
  3  4  1  0  0  0  0
  3 18  1  0  0  0  0
  3 19  1  0  0  0  0
  4  5  1  1  0  0  0
  4 10  1  0  0  0  0
  4  6  1  0  0  0  0
  6  7  1  0  0  0  0
  6 20  1  0  0  0  0
  6 21  1  0  0  0  0
  7  8  1  0  0  0  0
  7 22  1  0  0  0  0
  7 23  1  0  0  0  0
  8  9  1  0  0  0  0
  8 24  1  6  0  0  0
  9 10  1  0  0  0  0
  9 25  1  0  0  0  0
  9 26  1  0  0  0  0
 10 27  1  0  0  0  0
 10 28  1  0  0  0  0
 11 16  2  0  0  0  0
 11 12  1  0  0  0  0
 12 13  2  0  0  0  0
 12 29  1  0  0  0  0
 13 14  1  0  0  0  0
 13 30  1  0  0  0  0
 14 15  2  0  0  0  0
 14 31  1  0  0  0  0
 15 16  1  0  0  0  0
 15 32  1  0  0  0  0
M  CHG  1   4   1
M  END
$$$$
