ZINC000000056852      none
 OpenBabel11202420153D

 33 34  0  0  0  0  0  0  0  0999 V2000
   30.8999   37.4888   60.5103 O   0  0  0  0  0  0  0  0  0  0  0  0
   31.3530   36.3751   60.3516 C   0  0  0  0  0  0  0  0  0  0  0  0
   30.8931   35.2420   61.2323 C   0  0  0  0  0  0  0  0  0  0  0  0
   31.7816   35.1569   62.4464 C   0  0  0  0  0  0  0  0  0  0  0  0
   32.4123   34.1449   62.6665 O   0  0  0  0  0  0  0  0  0  0  0  0
   31.8840   36.3020   63.3651 C   0  0  0  0  0  0  0  0  0  0  0  0
   33.0658   36.5277   64.0781 C   0  0  0  0  0  0  0  0  0  0  0  0
   33.1538   37.6025   64.9372 C   0  0  0  0  0  0  0  0  0  0  0  0
   32.0762   38.4567   65.0954 C   0  0  0  0  0  0  0  0  0  0  0  0
   32.1788   39.6077   66.0201 N   0  0  0  0  0  0  0  0  0  0  0  0
   33.2096   39.8014   66.6394 O   0  0  0  0  0  0  0  0  0  0  0  0
   31.2342   40.3642   66.1579 O   0  0  0  0  0  0  0  0  0  0  0  0
   30.9014   38.2367   64.3976 C   0  0  0  0  0  0  0  0  0  0  0  0
   30.7998   37.1698   63.5301 C   0  0  0  0  0  0  0  0  0  0  0  0
   32.2678   36.1509   59.3875 N   0  0  0  0  0  0  0  0  0  0  0  0
   32.6949   37.2034   58.5695 C   0  0  0  0  0  0  0  0  0  0  0  0
   32.7211   38.5012   59.0624 C   0  0  0  0  0  0  0  0  0  0  0  0
   33.1434   39.5377   58.2530 C   0  0  0  0  0  0  0  0  0  0  0  0
   33.5402   39.2844   56.9526 C   0  0  0  0  0  0  0  0  0  0  0  0
   33.5157   37.9936   56.4580 C   0  0  0  0  0  0  0  0  0  0  0  0
   33.0992   36.9510   57.2643 C   0  0  0  0  0  0  0  0  0  0  0  0
   33.0748   35.3294   56.6449 Cl  0  0  0  0  0  0  0  0  0  0  0  0
   30.9461   34.3056   60.6768 H   0  0  0  0  0  0  0  0  0  0  0  0
   29.8648   35.4203   61.5463 H   0  0  0  0  0  0  0  0  0  0  0  0
   33.9072   35.8616   63.9563 H   0  0  0  0  0  0  0  0  0  0  0  0
   34.0656   37.7782   65.4885 H   0  0  0  0  0  0  0  0  0  0  0  0
   30.0632   38.9050   64.5299 H   0  0  0  0  0  0  0  0  0  0  0  0
   29.8840   37.0022   62.9829 H   0  0  0  0  0  0  0  0  0  0  0  0
   32.6302   35.2600   59.2606 H   0  0  0  0  0  0  0  0  0  0  0  0
   32.4110   38.7001   60.0776 H   0  0  0  0  0  0  0  0  0  0  0  0
   33.1634   40.5472   58.6361 H   0  0  0  0  0  0  0  0  0  0  0  0
   33.8698   40.0970   56.3220 H   0  0  0  0  0  0  0  0  0  0  0  0
   33.8263   37.7992   55.4420 H   0  0  0  0  0  0  0  0  0  0  0  0
  1  2  2  0  0  0  0
  2  3  1  0  0  0  0
  2 15  1  0  0  0  0
  3  4  1  0  0  0  0
  3 23  1  0  0  0  0
  3 24  1  0  0  0  0
  4  5  2  0  0  0  0
  4  6  1  0  0  0  0
  6 14  2  0  0  0  0
  6  7  1  0  0  0  0
  7  8  2  0  0  0  0
  7 25  1  0  0  0  0
  8  9  1  0  0  0  0
  8 26  1  0  0  0  0
  9 10  1  0  0  0  0
  9 13  2  0  0  0  0
 10 11  2  0  0  0  0
 10 12  2  0  0  0  0
 13 14  1  0  0  0  0
 13 27  1  0  0  0  0
 14 28  1  0  0  0  0
 15 16  1  0  0  0  0
 15 29  1  0  0  0  0
 16 21  2  0  0  0  0
 16 17  1  0  0  0  0
 17 18  2  0  0  0  0
 17 30  1  0  0  0  0
 18 19  1  0  0  0  0
 18 31  1  0  0  0  0
 19 20  2  0  0  0  0
 19 32  1  0  0  0  0
 20 21  1  0  0  0  0
 20 33  1  0  0  0  0
 21 22  1  0  0  0  0
M  END
$$$$
