ZINC000000032101      none
 OpenBabel11202420153D

 39 41  0  0  1  0  0  0  0  0999 V2000
   30.0247   38.8608   65.5696 C   0  0  0  0  0  0  0  0  0  0  0  0
   30.4762   37.4933   65.8596 N   0  3  2  0  0  0  0  0  0  0  0  0
   31.4448   37.5128   66.1415 H   0  0  0  0  0  0  0  0  0  0  0  0
   30.3362   36.6691   64.6524 C   0  0  0  0  0  0  0  0  0  0  0  0
   30.9111   35.2739   64.9183 C   0  0  0  0  0  0  0  0  0  0  0  0
   30.2547   34.7187   66.1119 N   0  0  0  0  0  0  0  0  0  0  0  0
   29.7138   33.4843   66.0944 C   0  0  0  0  0  0  0  0  0  0  0  0
   29.7641   32.8145   65.0847 O   0  0  0  0  0  0  0  0  0  0  0  0
   29.0463   32.9366   67.3295 C   0  0  2  0  0  0  0  0  0  0  0  0
   28.2121   33.5720   67.6266 H   0  0  0  0  0  0  0  0  0  0  0  0
   30.0672   32.8026   68.4859 C   0  0  1  0  0  0  0  0  0  0  0  0
   31.0553   33.1324   68.1648 H   0  0  0  0  0  0  0  0  0  0  0  0
   29.6124   33.5893   69.6880 C   0  0  0  0  0  0  0  0  0  0  0  0
   30.3310   34.4550   70.1576 O   0  0  0  0  0  0  0  0  0  0  0  0
   28.5257   33.3601   70.1910 O   0  0  0  0  0  1  0  0  0  0  0  0
   30.0736   31.2719   68.7975 C   0  0  2  0  0  0  0  0  0  0  0  0
   30.5008   30.9762   69.7557 H   0  0  0  0  0  0  0  0  0  0  0  0
   30.6799   30.6378   67.5397 C   0  0  0  0  0  0  0  0  0  0  0  0
   29.8109   30.7519   66.5554 C   0  0  0  0  0  0  0  0  0  0  0  0
   28.5655   31.4700   67.0892 C   0  0  1  0  0  0  0  0  0  0  0  0
   27.6437   31.3514   66.5195 H   0  0  0  0  0  0  0  0  0  0  0  0
   28.5566   30.9289   68.5657 C   0  0  0  0  0  0  0  0  0  0  0  0
   30.2049   35.5492   67.3252 C   0  0  0  0  0  0  0  0  0  0  0  0
   29.6633   36.9314   66.9457 C   0  0  0  0  0  0  0  0  0  0  0  0
   28.9784   38.8410   65.2648 H   0  0  0  0  0  0  0  0  0  0  0  0
   30.1314   39.4758   66.4632 H   0  0  0  0  0  0  0  0  0  0  0  0
   30.6295   39.2802   64.7655 H   0  0  0  0  0  0  0  0  0  0  0  0
   29.2815   36.5838   64.3908 H   0  0  0  0  0  0  0  0  0  0  0  0
   30.8783   37.1348   63.8295 H   0  0  0  0  0  0  0  0  0  0  0  0
   31.9848   35.3470   65.0913 H   0  0  0  0  0  0  0  0  0  0  0  0
   30.7184   34.6289   64.0609 H   0  0  0  0  0  0  0  0  0  0  0  0
   31.6536   30.1756   67.4720 H   0  0  0  0  0  0  0  0  0  0  0  0
   29.9521   30.3996   65.5442 H   0  0  0  0  0  0  0  0  0  0  0  0
   28.3582   29.8583   68.6168 H   0  0  0  0  0  0  0  0  0  0  0  0
   27.8949   31.4996   69.2173 H   0  0  0  0  0  0  0  0  0  0  0  0
   31.2073   35.6502   67.7413 H   0  0  0  0  0  0  0  0  0  0  0  0
   29.5453   35.0862   68.0592 H   0  0  0  0  0  0  0  0  0  0  0  0
   29.7096   37.5905   67.8126 H   0  0  0  0  0  0  0  0  0  0  0  0
   28.6289   36.8383   66.6148 H   0  0  0  0  0  0  0  0  0  0  0  0
  1  2  1  0  0  0  0
  1 25  1  0  0  0  0
  1 26  1  0  0  0  0
  1 27  1  0  0  0  0
  2  3  1  1  0  0  0
  2 24  1  0  0  0  0
  2  4  1  0  0  0  0
  4  5  1  0  0  0  0
  4 28  1  0  0  0  0
  4 29  1  0  0  0  0
  5  6  1  0  0  0  0
  5 30  1  0  0  0  0
  5 31  1  0  0  0  0
  6  7  1  0  0  0  0
  6 23  1  0  0  0  0
  7  8  2  0  0  0  0
  7  9  1  0  0  0  0
  9 10  1  1  0  0  0
  9 20  1  0  0  0  0
  9 11  1  0  0  0  0
 11 12  1  6  0  0  0
 11 13  1  0  0  0  0
 11 16  1  0  0  0  0
 13 14  2  0  0  0  0
 13 15  1  0  0  0  0
 16 17  1  1  0  0  0
 16 22  1  0  0  0  0
 16 18  1  0  0  0  0
 18 19  2  0  0  0  0
 18 32  1  0  0  0  0
 19 20  1  0  0  0  0
 19 33  1  0  0  0  0
 20 21  1  6  0  0  0
 20 22  1  0  0  0  0
 22 34  1  0  0  0  0
 22 35  1  0  0  0  0
 23 24  1  0  0  0  0
 23 36  1  0  0  0  0
 23 37  1  0  0  0  0
 24 38  1  0  0  0  0
 24 39  1  0  0  0  0
M  CHG  1   2   1
M  END
$$$$
