ZINC000000000503      none
 OpenBabel11202420153D

 32 33  0  0  1  0  0  0  0  0999 V2000
   34.3603   33.6562   55.9189 C   0  0  0  0  0  0  0  0  0  0  0  0
   33.0104   34.1208   55.9828 O   0  0  0  0  0  0  0  0  0  0  0  0
   32.6527   34.8284   57.0877 C   0  0  0  0  0  0  0  0  0  0  0  0
   32.1454   34.1729   58.1981 C   0  0  0  0  0  0  0  0  0  0  0  0
   31.7867   34.8933   59.3222 C   0  0  0  0  0  0  0  0  0  0  0  0
   31.9230   36.2688   59.3379 C   0  0  0  0  0  0  0  0  0  0  0  0
   31.5255   37.0498   60.5640 C   0  0  2  0  0  0  0  0  0  0  0  0
   31.1859   38.0485   60.2895 H   0  0  0  0  0  0  0  0  0  0  0  0
   32.6426   37.1246   61.5168 N   0  0  0  0  0  0  0  0  0  0  0  0
   32.3826   36.9030   62.7997 C   0  0  0  0  0  0  0  0  0  0  0  0
   33.2502   36.9530   63.6457 O   0  0  0  0  0  0  0  0  0  0  0  0
   30.9429   36.5838   63.1497 C   0  0  2  0  0  0  0  0  0  0  0  0
   30.4444   37.4552   63.5744 H   0  0  0  0  0  0  0  0  0  0  0  0
   30.8664   35.3943   64.1090 C   0  0  0  0  0  0  0  0  0  0  0  0
   30.2250   36.1521   61.5139 S   0  0  0  0  0  0  0  0  0  0  0  0
   32.4284   36.9292   58.2335 C   0  0  0  0  0  0  0  0  0  0  0  0
   32.7947   36.2126   57.1055 C   0  0  0  0  0  0  0  0  0  0  0  0
   33.2926   36.8606   56.0185 O   0  0  0  0  0  0  0  0  0  0  0  0
   33.4104   38.2819   56.1080 C   0  0  0  0  0  0  0  0  0  0  0  0
   35.0397   34.5079   55.9539 H   0  0  0  0  0  0  0  0  0  0  0  0
   34.5585   32.9983   56.7649 H   0  0  0  0  0  0  0  0  0  0  0  0
   34.5122   33.1083   54.9891 H   0  0  0  0  0  0  0  0  0  0  0  0
   32.0341   33.0987   58.1868 H   0  0  0  0  0  0  0  0  0  0  0  0
   31.3954   34.3806   60.1884 H   0  0  0  0  0  0  0  0  0  0  0  0
   33.5422   37.3292   61.2172 H   0  0  0  0  0  0  0  0  0  0  0  0
   31.3636   35.6498   65.0448 H   0  0  0  0  0  0  0  0  0  0  0  0
   29.8220   35.1533   64.3064 H   0  0  0  0  0  0  0  0  0  0  0  0
   31.3595   34.5325   63.6592 H   0  0  0  0  0  0  0  0  0  0  0  0
   32.5373   38.0036   58.2497 H   0  0  0  0  0  0  0  0  0  0  0  0
   32.4269   38.7177   56.2838 H   0  0  0  0  0  0  0  0  0  0  0  0
   34.0749   38.5401   56.9325 H   0  0  0  0  0  0  0  0  0  0  0  0
   33.8194   38.6720   55.1760 H   0  0  0  0  0  0  0  0  0  0  0  0
  1  2  1  0  0  0  0
  1 20  1  0  0  0  0
  1 21  1  0  0  0  0
  1 22  1  0  0  0  0
  2  3  1  0  0  0  0
  3 17  2  0  0  0  0
  3  4  1  0  0  0  0
  4  5  2  0  0  0  0
  4 23  1  0  0  0  0
  5  6  1  0  0  0  0
  5 24  1  0  0  0  0
  6  7  1  0  0  0  0
  6 16  2  0  0  0  0
  7  8  1  6  0  0  0
  7 15  1  0  0  0  0
  7  9  1  0  0  0  0
  9 10  1  0  0  0  0
  9 25  1  0  0  0  0
 10 11  2  0  0  0  0
 10 12  1  0  0  0  0
 12 13  1  1  0  0  0
 12 14  1  0  0  0  0
 12 15  1  0  0  0  0
 14 26  1  0  0  0  0
 14 27  1  0  0  0  0
 14 28  1  0  0  0  0
 16 17  1  0  0  0  0
 16 29  1  0  0  0  0
 17 18  1  0  0  0  0
 18 19  1  0  0  0  0
 19 30  1  0  0  0  0
 19 31  1  0  0  0  0
 19 32  1  0  0  0  0
M  END
$$$$
