ZINC000000001466      none
 OpenBabel11202420153D

 28 29  0  0  0  0  0  0  0  0999 V2000
   33.4821   35.4590   55.3302 O   0  0  0  0  0  0  0  0  0  0  0  0
   33.1810   35.0683   56.4438 N   0  0  0  0  0  0  0  0  0  0  0  0
   33.2530   33.8827   56.7134 O   0  0  0  0  0  0  0  0  0  0  0  0
   32.7277   36.0346   57.4699 C   0  0  0  0  0  0  0  0  0  0  0  0
   32.5999   37.3679   57.3147 C   0  0  0  0  0  0  0  0  0  0  0  0
   32.1709   37.8883   58.4705 N   0  0  0  0  0  0  0  0  0  0  0  0
   32.0180   36.9233   59.3501 C   0  0  0  0  0  0  0  0  0  0  0  0
   31.5585   37.0889   60.7460 C   0  0  0  0  0  0  0  0  0  0  0  0
   32.4848   37.3077   61.7667 C   0  0  0  0  0  0  0  0  0  0  0  0
   32.0507   37.4654   63.0662 C   0  0  0  0  0  0  0  0  0  0  0  0
   30.6981   37.3977   63.3606 C   0  0  0  0  0  0  0  0  0  0  0  0
   30.2785   37.5482   64.6359 F   0  0  0  0  0  0  0  0  0  0  0  0
   29.7746   37.1758   62.3513 C   0  0  0  0  0  0  0  0  0  0  0  0
   30.1978   37.0212   61.0478 C   0  0  0  0  0  0  0  0  0  0  0  0
   32.3555   35.7430   58.7549 N   0  0  0  0  0  0  0  0  0  0  0  0
   32.3302   34.4159   59.3750 C   0  0  0  0  0  0  0  0  0  0  0  0
   30.9578   33.7764   59.1555 C   0  0  0  0  0  0  0  0  0  0  0  0
   30.9332   32.4819   59.7604 O   0  0  0  0  0  0  0  0  0  0  0  0
   32.8122   37.9222   56.4124 H   0  0  0  0  0  0  0  0  0  0  0  0
   33.5393   37.3567   61.5389 H   0  0  0  0  0  0  0  0  0  0  0  0
   32.7663   37.6382   63.8563 H   0  0  0  0  0  0  0  0  0  0  0  0
   28.7217   37.1235   62.5861 H   0  0  0  0  0  0  0  0  0  0  0  0
   29.4773   36.8483   60.2622 H   0  0  0  0  0  0  0  0  0  0  0  0
   32.5201   34.5108   60.4441 H   0  0  0  0  0  0  0  0  0  0  0  0
   33.0995   33.7893   58.9235 H   0  0  0  0  0  0  0  0  0  0  0  0
   30.1886   34.4030   59.6069 H   0  0  0  0  0  0  0  0  0  0  0  0
   30.7679   33.6815   58.0865 H   0  0  0  0  0  0  0  0  0  0  0  0
   31.5930   31.8699   59.4066 H   0  0  0  0  0  0  0  0  0  0  0  0
  1  2  2  0  0  0  0
  2  3  2  0  0  0  0
  2  4  1  0  0  0  0
  4 15  1  0  0  0  0
  4  5  2  0  0  0  0
  5  6  1  0  0  0  0
  5 19  1  0  0  0  0
  6  7  2  0  0  0  0
  7  8  1  0  0  0  0
  7 15  1  0  0  0  0
  8 14  2  0  0  0  0
  8  9  1  0  0  0  0
  9 10  2  0  0  0  0
  9 20  1  0  0  0  0
 10 11  1  0  0  0  0
 10 21  1  0  0  0  0
 11 12  1  0  0  0  0
 11 13  2  0  0  0  0
 13 14  1  0  0  0  0
 13 22  1  0  0  0  0
 14 23  1  0  0  0  0
 15 16  1  0  0  0  0
 16 17  1  0  0  0  0
 16 24  1  0  0  0  0
 16 25  1  0  0  0  0
 17 18  1  0  0  0  0
 17 26  1  0  0  0  0
 17 27  1  0  0  0  0
 18 28  1  0  0  0  0
M  END
$$$$
