ZINC000000040295      none
 OpenBabel11202420153D

 28 29  0  0  0  0  0  0  0  0999 V2000
   30.4806   38.5164   62.8695 C   0  0  0  0  0  0  0  0  0  0  0  0
   30.5532   37.0382   62.4814 C   0  0  0  0  0  0  0  0  0  0  0  0
   29.3509   36.2743   63.0398 C   0  0  0  0  0  0  0  0  0  0  0  0
   30.6289   36.8856   60.9747 C   0  0  0  0  0  0  0  0  0  0  0  0
   29.8052   37.2384   60.1564 O   0  0  0  0  0  0  0  0  0  0  0  0
   31.8102   36.2791   60.7379 N   0  0  0  0  0  0  0  0  0  0  0  0
   32.2886   35.9500   59.4638 C   0  0  0  0  0  0  0  0  0  0  0  0
   32.5653   34.6260   59.1442 C   0  0  0  0  0  0  0  0  0  0  0  0
   32.3176   33.3774   60.3245 Cl  0  0  0  0  0  0  0  0  0  0  0  0
   33.0322   34.3039   57.8839 C   0  0  0  0  0  0  0  0  0  0  0  0
   33.2349   35.2994   56.9442 C   0  0  0  0  0  0  0  0  0  0  0  0
   33.8285   34.8914   55.3647 Cl  0  0  0  0  0  0  0  0  0  0  0  0
   32.9659   36.6193   57.2610 C   0  0  0  0  0  0  0  0  0  0  0  0
   32.4931   36.9473   58.5177 C   0  0  0  0  0  0  0  0  0  0  0  0
   32.1559   38.6034   58.9142 Cl  0  0  0  0  0  0  0  0  0  0  0  0
   32.4923   36.0230   61.9235 N   0  0  0  0  0  0  0  0  0  0  0  0
   31.8468   36.4198   62.9687 C   0  0  0  0  0  0  0  0  0  0  0  0
   32.2602   36.3068   64.2817 N   0  0  0  0  0  0  0  0  0  0  0  0
   29.5932   38.9659   62.4238 H   0  0  0  0  0  0  0  0  0  0  0  0
   30.4267   38.6049   63.9545 H   0  0  0  0  0  0  0  0  0  0  0  0
   31.3700   39.0314   62.5066 H   0  0  0  0  0  0  0  0  0  0  0  0
   29.4478   35.2162   62.7963 H   0  0  0  0  0  0  0  0  0  0  0  0
   29.3138   36.3961   64.1223 H   0  0  0  0  0  0  0  0  0  0  0  0
   28.4345   36.6662   62.5986 H   0  0  0  0  0  0  0  0  0  0  0  0
   33.2432   33.2746   57.6336 H   0  0  0  0  0  0  0  0  0  0  0  0
   33.1250   37.3939   56.5255 H   0  0  0  0  0  0  0  0  0  0  0  0
   33.1139   35.8950   64.4877 H   0  0  0  0  0  0  0  0  0  0  0  0
   31.6968   36.6395   64.9978 H   0  0  0  0  0  0  0  0  0  0  0  0
  1  2  1  0  0  0  0
  1 19  1  0  0  0  0
  1 20  1  0  0  0  0
  1 21  1  0  0  0  0
  2 17  1  0  0  0  0
  2  3  1  0  0  0  0
  2  4  1  0  0  0  0
  3 22  1  0  0  0  0
  3 23  1  0  0  0  0
  3 24  1  0  0  0  0
  4  5  2  0  0  0  0
  4  6  1  0  0  0  0
  6  7  1  0  0  0  0
  6 16  1  0  0  0  0
  7 14  2  0  0  0  0
  7  8  1  0  0  0  0
  8  9  1  0  0  0  0
  8 10  2  0  0  0  0
 10 11  1  0  0  0  0
 10 25  1  0  0  0  0
 11 12  1  0  0  0  0
 11 13  2  0  0  0  0
 13 14  1  0  0  0  0
 13 26  1  0  0  0  0
 14 15  1  0  0  0  0
 16 17  2  0  0  0  0
 17 18  1  0  0  0  0
 18 27  1  0  0  0  0
 18 28  1  0  0  0  0
M  END
$$$$
