ZINC000000025267      none
 OpenBabel11202420153D

 24 25  0  0  0  0  0  0  0  0999 V2000
   30.8468   39.2192   62.2858 O   0  0  0  0  0  0  0  0  0  0  0  0
   30.9407   38.4783   61.3263 C   0  0  0  0  0  0  0  0  0  0  0  0
   30.0344   37.5023   61.1653 N   0  0  0  0  0  0  0  0  0  0  0  0
   30.0400   36.6240   59.9956 C   0  0  0  0  0  0  0  0  0  0  0  0
   31.4731   36.4451   59.4951 C   0  0  0  0  0  0  0  0  0  0  0  0
   32.0805   37.7808   59.3638 N   0  0  0  0  0  0  0  0  0  0  0  0
   32.7523   38.1617   58.2001 C   0  0  0  0  0  0  0  0  0  0  0  0
   33.4039   37.2078   57.4287 C   0  0  0  0  0  0  0  0  0  0  0  0
   34.0730   37.5888   56.2821 C   0  0  0  0  0  0  0  0  0  0  0  0
   34.0936   38.9179   55.9010 C   0  0  0  0  0  0  0  0  0  0  0  0
   33.4456   39.8700   56.6665 C   0  0  0  0  0  0  0  0  0  0  0  0
   32.7755   39.4960   57.8147 C   0  0  0  0  0  0  0  0  0  0  0  0
   31.9516   38.6600   60.4553 N   0  0  0  0  0  0  0  0  0  0  0  0
   29.3547   37.3751   61.8455 H   0  0  0  0  0  0  0  0  0  0  0  0
   29.6251   35.6535   60.2684 H   0  0  0  0  0  0  0  0  0  0  0  0
   29.4353   37.0681   59.2050 H   0  0  0  0  0  0  0  0  0  0  0  0
   31.4652   35.9463   58.5260 H   0  0  0  0  0  0  0  0  0  0  0  0
   32.0394   35.8511   60.2124 H   0  0  0  0  0  0  0  0  0  0  0  0
   33.3882   36.1696   57.7257 H   0  0  0  0  0  0  0  0  0  0  0  0
   34.5800   36.8477   55.6820 H   0  0  0  0  0  0  0  0  0  0  0  0
   34.6172   39.2131   55.0038 H   0  0  0  0  0  0  0  0  0  0  0  0
   33.4639   40.9073   56.3663 H   0  0  0  0  0  0  0  0  0  0  0  0
   32.2702   40.2403   58.4124 H   0  0  0  0  0  0  0  0  0  0  0  0
   32.5825   39.3865   60.5787 H   0  0  0  0  0  0  0  0  0  0  0  0
  1  2  2  0  0  0  0
  2 13  1  0  0  0  0
  2  3  1  0  0  0  0
  3  4  1  0  0  0  0
  3 14  1  0  0  0  0
  4  5  1  0  0  0  0
  4 15  1  0  0  0  0
  4 16  1  0  0  0  0
  5  6  1  0  0  0  0
  5 17  1  0  0  0  0
  5 18  1  0  0  0  0
  6  7  1  0  0  0  0
  6 13  1  0  0  0  0
  7 12  2  0  0  0  0
  7  8  1  0  0  0  0
  8  9  2  0  0  0  0
  8 19  1  0  0  0  0
  9 10  1  0  0  0  0
  9 20  1  0  0  0  0
 10 11  2  0  0  0  0
 10 21  1  0  0  0  0
 11 12  1  0  0  0  0
 11 22  1  0  0  0  0
 12 23  1  0  0  0  0
 13 24  1  0  0  0  0
M  END
$$$$
