ZINC000000040672      none
 OpenBabel11202420153D

 30 31  0  0  0  0  0  0  0  0999 V2000
   33.6062   33.1196   53.8594 C   0  0  0  0  0  0  0  0  0  0  0  0
   33.2217   33.6203   55.2277 C   0  0  0  0  0  0  0  0  0  0  0  0
   32.8482   32.8388   56.0768 O   0  0  0  0  0  0  0  0  0  0  0  0
   33.2928   34.9367   55.5082 N   0  0  0  0  0  0  0  0  0  0  0  0
   32.9363   35.4011   56.7771 C   0  0  0  0  0  0  0  0  0  0  0  0
   33.0153   36.7589   57.0660 C   0  0  0  0  0  0  0  0  0  0  0  0
   32.6597   37.2213   58.3140 C   0  0  0  0  0  0  0  0  0  0  0  0
   32.2241   36.3228   59.2920 C   0  0  0  0  0  0  0  0  0  0  0  0
   31.8422   36.8134   60.6286 C   0  0  0  0  0  0  0  0  0  0  0  0
   31.3470   38.0009   60.7514 N   0  0  0  0  0  0  0  0  0  0  0  0
   30.9939   38.5207   61.9996 N   0  0  0  0  0  0  0  0  0  0  0  0
   31.4304   37.9373   63.1321 C   0  0  0  0  0  0  0  0  0  0  0  0
   31.0582   38.3466   64.2118 O   0  0  0  0  0  0  0  0  0  0  0  0
   32.3846   36.7716   63.0505 C   0  0  0  0  0  0  0  0  0  0  0  0
   32.0302   35.9200   61.8260 C   0  0  0  0  0  0  0  0  0  0  0  0
   32.1511   34.9581   58.9994 C   0  0  0  0  0  0  0  0  0  0  0  0
   32.5084   34.5035   57.7491 C   0  0  0  0  0  0  0  0  0  0  0  0
   33.9129   33.9606   53.2376 H   0  0  0  0  0  0  0  0  0  0  0  0
   34.4323   32.4141   53.9495 H   0  0  0  0  0  0  0  0  0  0  0  0
   32.7516   32.6216   53.4013 H   0  0  0  0  0  0  0  0  0  0  0  0
   33.5914   35.5618   54.8292 H   0  0  0  0  0  0  0  0  0  0  0  0
   33.3516   37.4526   56.3096 H   0  0  0  0  0  0  0  0  0  0  0  0
   32.7172   38.2765   58.5364 H   0  0  0  0  0  0  0  0  0  0  0  0
   30.4294   39.3079   62.0506 H   0  0  0  0  0  0  0  0  0  0  0  0
   33.4055   37.1422   62.9576 H   0  0  0  0  0  0  0  0  0  0  0  0
   32.2977   36.1658   63.9524 H   0  0  0  0  0  0  0  0  0  0  0  0
   31.1084   35.3706   62.0170 H   0  0  0  0  0  0  0  0  0  0  0  0
   32.8378   35.2147   61.6292 H   0  0  0  0  0  0  0  0  0  0  0  0
   31.8146   34.2609   59.7525 H   0  0  0  0  0  0  0  0  0  0  0  0
   32.4519   33.4492   57.5220 H   0  0  0  0  0  0  0  0  0  0  0  0
  1  2  1  0  0  0  0
  1 18  1  0  0  0  0
  1 19  1  0  0  0  0
  1 20  1  0  0  0  0
  2  3  2  0  0  0  0
  2  4  1  0  0  0  0
  4  5  1  0  0  0  0
  4 21  1  0  0  0  0
  5 17  2  0  0  0  0
  5  6  1  0  0  0  0
  6  7  2  0  0  0  0
  6 22  1  0  0  0  0
  7  8  1  0  0  0  0
  7 23  1  0  0  0  0
  8  9  1  0  0  0  0
  8 16  2  0  0  0  0
  9 15  1  0  0  0  0
  9 10  2  0  0  0  0
 10 11  1  0  0  0  0
 11 12  1  0  0  0  0
 11 24  1  0  0  0  0
 12 13  2  0  0  0  0
 12 14  1  0  0  0  0
 14 15  1  0  0  0  0
 14 25  1  0  0  0  0
 14 26  1  0  0  0  0
 15 27  1  0  0  0  0
 15 28  1  0  0  0  0
 16 17  1  0  0  0  0
 16 29  1  0  0  0  0
 17 30  1  0  0  0  0
M  END
$$$$
