ZINC000000049689      none
 OpenBabel11202420153D

 32 33  0  0  0  0  0  0  0  0999 V2000
   32.9287   34.6675   56.0431 C   0  0  0  0  0  0  0  0  0  0  0  0
   33.0772   36.1654   56.1133 C   0  0  0  0  0  0  0  0  0  0  0  0
   32.5567   36.8640   55.2760 O   0  0  0  0  0  0  0  0  0  0  0  0
   33.7879   36.7239   57.1065 O   0  0  0  0  0  0  0  0  0  0  0  0
   33.1144   37.0477   58.2400 C   0  0  0  0  0  0  0  0  0  0  0  0
   32.4607   36.0580   58.9643 C   0  0  0  0  0  0  0  0  0  0  0  0
   31.7759   36.3823   60.1144 C   0  0  0  0  0  0  0  0  0  0  0  0
   31.7394   37.7084   60.5530 C   0  0  0  0  0  0  0  0  0  0  0  0
   31.0061   38.0605   61.7852 C   0  0  0  0  0  0  0  0  0  0  0  0
   30.0841   38.8515   61.7387 O   0  0  0  0  0  0  0  0  0  0  0  0
   31.3589   37.5050   62.9613 N   0  0  0  0  0  0  0  0  0  0  0  0
   32.4504   36.5402   63.1601 C   0  0  0  0  0  0  0  0  0  0  0  0
   32.5001   36.2033   64.6654 C   0  0  0  0  0  0  0  0  0  0  0  0
   31.8033   37.4262   65.3184 C   0  0  0  0  0  0  0  0  0  0  0  0
   30.7171   37.7636   64.2666 C   0  0  0  0  0  0  0  0  0  0  0  0
   32.3938   38.7011   59.8194 C   0  0  0  0  0  0  0  0  0  0  0  0
   33.0808   38.3677   58.6731 C   0  0  0  0  0  0  0  0  0  0  0  0
   32.0436   34.3635   56.6018 H   0  0  0  0  0  0  0  0  0  0  0  0
   32.8244   34.3610   55.0022 H   0  0  0  0  0  0  0  0  0  0  0  0
   33.8108   34.1943   56.4744 H   0  0  0  0  0  0  0  0  0  0  0  0
   32.4894   35.0332   58.6246 H   0  0  0  0  0  0  0  0  0  0  0  0
   31.2682   35.6126   60.6768 H   0  0  0  0  0  0  0  0  0  0  0  0
   33.3967   36.9815   62.8476 H   0  0  0  0  0  0  0  0  0  0  0  0
   32.2552   35.6358   62.5841 H   0  0  0  0  0  0  0  0  0  0  0  0
   31.9470   35.2874   64.8740 H   0  0  0  0  0  0  0  0  0  0  0  0
   33.5314   36.1187   65.0077 H   0  0  0  0  0  0  0  0  0  0  0  0
   31.3521   37.1551   66.2729 H   0  0  0  0  0  0  0  0  0  0  0  0
   32.5009   38.2549   65.4391 H   0  0  0  0  0  0  0  0  0  0  0  0
   29.8497   37.1163   64.3961 H   0  0  0  0  0  0  0  0  0  0  0  0
   30.4238   38.8103   64.3465 H   0  0  0  0  0  0  0  0  0  0  0  0
   32.3642   39.7280   60.1527 H   0  0  0  0  0  0  0  0  0  0  0  0
   33.5904   39.1339   58.1077 H   0  0  0  0  0  0  0  0  0  0  0  0
  1  2  1  0  0  0  0
  1 18  1  0  0  0  0
  1 19  1  0  0  0  0
  1 20  1  0  0  0  0
  2  3  2  0  0  0  0
  2  4  1  0  0  0  0
  4  5  1  0  0  0  0
  5 17  2  0  0  0  0
  5  6  1  0  0  0  0
  6  7  2  0  0  0  0
  6 21  1  0  0  0  0
  7  8  1  0  0  0  0
  7 22  1  0  0  0  0
  8  9  1  0  0  0  0
  8 16  2  0  0  0  0
  9 10  2  0  0  0  0
  9 11  1  0  0  0  0
 11 15  1  0  0  0  0
 11 12  1  0  0  0  0
 12 13  1  0  0  0  0
 12 23  1  0  0  0  0
 12 24  1  0  0  0  0
 13 14  1  0  0  0  0
 13 25  1  0  0  0  0
 13 26  1  0  0  0  0
 14 15  1  0  0  0  0
 14 27  1  0  0  0  0
 14 28  1  0  0  0  0
 15 29  1  0  0  0  0
 15 30  1  0  0  0  0
 16 17  1  0  0  0  0
 16 31  1  0  0  0  0
 17 32  1  0  0  0  0
M  END
$$$$
