ZINC000000003322      none
 OpenBabel11202420153D

 40 43  0  0  1  0  0  0  0  0999 V2000
   31.4469   38.2536   64.1096 C   0  0  0  0  0  0  0  0  0  0  0  0
   31.8744   37.7567   62.7995 N   0  0  0  0  0  0  0  0  0  0  0  0
   31.4548   36.5516   62.3660 C   0  0  0  0  0  0  0  0  0  0  0  0
   30.7212   35.8769   63.0621 O   0  0  0  0  0  0  0  0  0  0  0  0
   31.8861   36.0503   61.0445 C   0  0  0  0  0  0  0  0  0  0  0  0
   31.9571   34.6648   60.8129 C   0  0  0  0  0  0  0  0  0  0  0  0
   32.3511   34.1800   59.6081 C   0  0  0  0  0  0  0  0  0  0  0  0
   32.6941   35.0664   58.5705 C   0  0  0  0  0  0  0  0  0  0  0  0
   33.1038   34.5880   57.3148 C   0  0  0  0  0  0  0  0  0  0  0  0
   33.4296   35.4698   56.3301 C   0  0  0  0  0  0  0  0  0  0  0  0
   33.8679   34.9511   54.9848 C   0  0  2  0  0  0  0  0  0  0  0  0
   34.7294   35.8939   54.3435 O   0  0  0  0  0  0  0  0  0  0  0  0
   32.6403   34.6490   54.0958 C   0  0  0  0  0  0  0  0  0  0  0  0
   33.1043   33.3970   53.3211 C   0  0  0  0  0  0  0  0  0  0  0  0
   34.1061   32.7481   54.1787 N   0  0  0  0  0  0  0  0  0  0  0  0
   34.7557   31.5757   54.3663 C   0  0  0  0  0  0  0  0  0  0  0  0
   35.5694   31.7049   55.3776 N   0  0  0  0  0  0  0  0  0  0  0  0
   35.4709   32.9492   55.8684 C   0  0  0  0  0  0  0  0  0  0  0  0
   34.5596   33.6143   55.1331 C   0  0  0  0  0  0  0  0  0  0  0  0
   33.3584   36.8450   56.5454 C   0  0  0  0  0  0  0  0  0  0  0  0
   32.9711   37.3457   57.7500 C   0  0  0  0  0  0  0  0  0  0  0  0
   32.6267   36.4654   58.7916 C   0  0  0  0  0  0  0  0  0  0  0  0
   32.2176   36.9483   60.0437 C   0  0  0  0  0  0  0  0  0  0  0  0
   31.8837   39.2367   64.2856 H   0  0  0  0  0  0  0  0  0  0  0  0
   30.3599   38.3297   64.1322 H   0  0  0  0  0  0  0  0  0  0  0  0
   31.7790   37.5642   64.8858 H   0  0  0  0  0  0  0  0  0  0  0  0
   32.4598   38.2951   62.2440 H   0  0  0  0  0  0  0  0  0  0  0  0
   31.6951   33.9779   61.6041 H   0  0  0  0  0  0  0  0  0  0  0  0
   32.4011   33.1134   59.4455 H   0  0  0  0  0  0  0  0  0  0  0  0
   33.1605   33.5252   57.1314 H   0  0  0  0  0  0  0  0  0  0  0  0
   35.0509   35.6074   53.4779 H   0  0  0  0  0  0  0  0  0  0  0  0
   31.7638   34.4271   54.7049 H   0  0  0  0  0  0  0  0  0  0  0  0
   32.4395   35.4763   53.4151 H   0  0  0  0  0  0  0  0  0  0  0  0
   32.2625   32.7259   53.1514 H   0  0  0  0  0  0  0  0  0  0  0  0
   33.5532   33.6871   52.3711 H   0  0  0  0  0  0  0  0  0  0  0  0
   34.6219   30.6809   53.7765 H   0  0  0  0  0  0  0  0  0  0  0  0
   36.0246   33.3474   56.7059 H   0  0  0  0  0  0  0  0  0  0  0  0
   33.6185   37.5229   55.7459 H   0  0  0  0  0  0  0  0  0  0  0  0
   32.9240   38.4137   57.9041 H   0  0  0  0  0  0  0  0  0  0  0  0
   32.1614   38.0114   60.2255 H   0  0  0  0  0  0  0  0  0  0  0  0
  1  2  1  0  0  0  0
  1 24  1  0  0  0  0
  1 25  1  0  0  0  0
  1 26  1  0  0  0  0
  2  3  1  0  0  0  0
  2 27  1  0  0  0  0
  3  4  2  0  0  0  0
  3  5  1  0  0  0  0
  5 23  2  0  0  0  0
  5  6  1  0  0  0  0
  6  7  2  0  0  0  0
  6 28  1  0  0  0  0
  7  8  1  0  0  0  0
  7 29  1  0  0  0  0
  8 22  2  0  0  0  0
  8  9  1  0  0  0  0
  9 10  2  0  0  0  0
  9 30  1  0  0  0  0
 10 11  1  0  0  0  0
 10 20  1  0  0  0  0
 11 19  1  0  0  0  0
 11 12  1  6  0  0  0
 11 13  1  0  0  0  0
 12 31  1  0  0  0  0
 13 14  1  0  0  0  0
 13 32  1  0  0  0  0
 13 33  1  0  0  0  0
 14 15  1  0  0  0  0
 14 34  1  0  0  0  0
 14 35  1  0  0  0  0
 15 19  1  0  0  0  0
 15 16  1  0  0  0  0
 16 17  2  0  0  0  0
 16 36  1  0  0  0  0
 17 18  1  0  0  0  0
 18 19  2  0  0  0  0
 18 37  1  0  0  0  0
 20 21  2  0  0  0  0
 20 38  1  0  0  0  0
 21 22  1  0  0  0  0
 21 39  1  0  0  0  0
 22 23  1  0  0  0  0
 23 40  1  0  0  0  0
M  END
$$$$
