ZINC000000029837      none
 OpenBabel11202420163D

 32 32  0  0  0  0  0  0  0  0999 V2000
   30.4744   39.3174   64.7200 C   0  0  0  0  0  0  0  0  0  0  0  0
   31.5575   38.2580   64.5063 C   0  0  0  0  0  0  0  0  0  0  0  0
   30.9379   37.0109   64.0517 N   0  0  0  0  0  0  0  0  0  0  0  0
   29.9450   36.3373   64.8924 C   0  0  0  0  0  0  0  0  0  0  0  0
   30.4398   34.9319   65.2395 C   0  0  0  0  0  0  0  0  0  0  0  0
   31.3597   36.3623   62.5875 S   0  0  0  0  0  0  0  0  0  0  0  0
   30.5070   35.2345   62.4451 O   0  0  0  0  0  0  0  0  0  0  0  0
   32.7702   36.2091   62.6653 O   0  0  0  0  0  0  0  0  0  0  0  0
   30.9243   37.6458   61.3818 C   0  0  0  0  0  0  0  0  0  0  0  0
   31.6821   37.4093   60.1007 C   0  0  0  0  0  0  0  0  0  0  0  0
   32.2976   38.4663   59.4566 C   0  0  0  0  0  0  0  0  0  0  0  0
   32.9933   38.2493   58.2820 C   0  0  0  0  0  0  0  0  0  0  0  0
   33.0740   36.9752   57.7518 C   0  0  0  0  0  0  0  0  0  0  0  0
   32.4540   35.9192   58.3930 C   0  0  0  0  0  0  0  0  0  0  0  0
   31.7619   36.1355   59.5699 C   0  0  0  0  0  0  0  0  0  0  0  0
   29.9487   39.4939   63.7816 H   0  0  0  0  0  0  0  0  0  0  0  0
   29.7674   38.9676   65.4722 H   0  0  0  0  0  0  0  0  0  0  0  0
   30.9354   40.2454   65.0582 H   0  0  0  0  0  0  0  0  0  0  0  0
   32.0832   38.0816   65.4447 H   0  0  0  0  0  0  0  0  0  0  0  0
   32.2645   38.6079   63.7541 H   0  0  0  0  0  0  0  0  0  0  0  0
   29.7986   36.9077   65.8096 H   0  0  0  0  0  0  0  0  0  0  0  0
   29.0003   36.2671   64.3535 H   0  0  0  0  0  0  0  0  0  0  0  0
   29.7011   34.4307   65.8649 H   0  0  0  0  0  0  0  0  0  0  0  0
   30.5863   34.3613   64.3223 H   0  0  0  0  0  0  0  0  0  0  0  0
   31.3847   35.0020   65.7784 H   0  0  0  0  0  0  0  0  0  0  0  0
   31.1857   38.6250   61.7830 H   0  0  0  0  0  0  0  0  0  0  0  0
   29.8533   37.6089   61.1824 H   0  0  0  0  0  0  0  0  0  0  0  0
   32.2352   39.4616   59.8713 H   0  0  0  0  0  0  0  0  0  0  0  0
   33.4742   39.0751   57.7788 H   0  0  0  0  0  0  0  0  0  0  0  0
   33.6176   36.8057   56.8340 H   0  0  0  0  0  0  0  0  0  0  0  0
   32.5133   34.9245   57.9764 H   0  0  0  0  0  0  0  0  0  0  0  0
   31.2814   35.3096   60.0734 H   0  0  0  0  0  0  0  0  0  0  0  0
  1  2  1  0  0  0  0
  1 16  1  0  0  0  0
  1 17  1  0  0  0  0
  1 18  1  0  0  0  0
  2  3  1  0  0  0  0
  2 19  1  0  0  0  0
  2 20  1  0  0  0  0
  3  4  1  0  0  0  0
  3  6  1  0  0  0  0
  4  5  1  0  0  0  0
  4 21  1  0  0  0  0
  4 22  1  0  0  0  0
  5 23  1  0  0  0  0
  5 24  1  0  0  0  0
  5 25  1  0  0  0  0
  6  7  2  0  0  0  0
  6  8  2  0  0  0  0
  6  9  1  0  0  0  0
  9 10  1  0  0  0  0
  9 26  1  0  0  0  0
  9 27  1  0  0  0  0
 10 15  2  0  0  0  0
 10 11  1  0  0  0  0
 11 12  2  0  0  0  0
 11 28  1  0  0  0  0
 12 13  1  0  0  0  0
 12 29  1  0  0  0  0
 13 14  2  0  0  0  0
 13 30  1  0  0  0  0
 14 15  1  0  0  0  0
 14 31  1  0  0  0  0
 15 32  1  0  0  0  0
M  END
$$$$
