ZINC000000007571      none
 OpenBabel11202420153D

 15 15  0  0  0  0  0  0  0  0999 V2000
   34.7358   40.0321   54.7147 O   0  0  0  0  0  0  0  0  0  0  0  0
   34.4628   38.8719   54.9655 N   0  0  0  0  0  0  0  0  0  0  0  0
   34.7290   37.9962   54.1620 O   0  0  0  0  0  0  0  0  0  0  0  0
   33.8051   38.5249   56.2519 C   0  0  0  0  0  0  0  0  0  0  0  0
   33.3921   39.8844   57.4997 Br  0  0  0  0  0  0  0  0  0  0  0  0
   33.5068   37.2569   56.5261 C   0  0  0  0  0  0  0  0  0  0  0  0
   32.8559   36.9135   57.7990 C   0  0  0  0  0  0  0  0  0  0  0  0
   32.5035   35.6615   58.2049 C   0  0  0  0  0  0  0  0  0  0  0  0
   31.9112   35.7988   59.4753 C   0  0  0  0  0  0  0  0  0  0  0  0
   31.9380   37.1117   59.7846 C   0  0  0  0  0  0  0  0  0  0  0  0
   31.2799   37.8814   61.3817 Br  0  0  0  0  0  0  0  0  0  0  0  0
   32.5092   37.7817   58.7700 O   0  0  0  0  0  0  0  0  0  0  0  0
   33.7426   36.4803   55.8135 H   0  0  0  0  0  0  0  0  0  0  0  0
   32.6479   34.7420   57.6572 H   0  0  0  0  0  0  0  0  0  0  0  0
   31.5148   35.0029   60.0883 H   0  0  0  0  0  0  0  0  0  0  0  0
  1  2  2  0  0  0  0
  2  3  2  0  0  0  0
  2  4  1  0  0  0  0
  4  5  1  0  0  0  0
  4  6  2  0  0  0  0
  6  7  1  0  0  0  0
  6 13  1  0  0  0  0
  7 12  1  0  0  0  0
  7  8  2  0  0  0  0
  8  9  1  0  0  0  0
  8 14  1  0  0  0  0
  9 10  2  0  0  0  0
  9 15  1  0  0  0  0
 10 11  1  0  0  0  0
 10 12  1  0  0  0  0
M  END
$$$$
