ZINC000000038341      none
 OpenBabel11202420153D

 34 36  0  0  0  0  0  0  0  0999 V2000
   30.5171   38.4550   61.5626 O   0  0  0  0  0  0  0  0  0  0  0  0
   31.3381   37.6118   61.8684 C   0  0  0  0  0  0  0  0  0  0  0  0
   31.8475   36.7941   60.9257 N   0  0  0  0  0  0  0  0  0  0  0  0
   31.4119   36.9212   59.5328 C   0  0  0  0  0  0  0  0  0  0  0  0
   32.3085   37.8954   58.8130 C   0  0  0  0  0  0  0  0  0  0  0  0
   32.6495   39.0927   59.4144 C   0  0  0  0  0  0  0  0  0  0  0  0
   33.4758   39.9874   58.7603 C   0  0  0  0  0  0  0  0  0  0  0  0
   33.9573   39.6897   57.4959 C   0  0  0  0  0  0  0  0  0  0  0  0
   33.6138   38.4836   56.8902 C   0  0  0  0  0  0  0  0  0  0  0  0
   32.7886   37.5899   57.5532 C   0  0  0  0  0  0  0  0  0  0  0  0
   34.2118   38.4250   55.6644 O   0  0  0  0  0  0  0  0  0  0  0  0
   34.5907   39.7796   55.3565 C   0  0  0  0  0  0  0  0  0  0  0  0
   34.7704   40.3869   56.6497 O   0  0  0  0  0  0  0  0  0  0  0  0
   31.7387   37.4948   63.1499 N   0  0  0  0  0  0  0  0  0  0  0  0
   31.2096   38.3443   64.1289 C   0  0  0  0  0  0  0  0  0  0  0  0
   31.9714   38.6863   65.2384 C   0  0  0  0  0  0  0  0  0  0  0  0
   31.4485   39.5276   66.2009 C   0  0  0  0  0  0  0  0  0  0  0  0
   30.1633   40.0221   66.0650 C   0  0  0  0  0  0  0  0  0  0  0  0
   29.5067   41.0744   67.2796 Cl  0  0  0  0  0  0  0  0  0  0  0  0
   29.4002   39.6788   64.9628 C   0  0  0  0  0  0  0  0  0  0  0  0
   29.9200   38.8415   63.9952 C   0  0  0  0  0  0  0  0  0  0  0  0
   32.5024   36.1215   61.1698 H   0  0  0  0  0  0  0  0  0  0  0  0
   30.3845   37.2841   59.5050 H   0  0  0  0  0  0  0  0  0  0  0  0
   31.4669   35.9481   59.0446 H   0  0  0  0  0  0  0  0  0  0  0  0
   32.2728   39.3278   60.3989 H   0  0  0  0  0  0  0  0  0  0  0  0
   33.7449   40.9197   59.2348 H   0  0  0  0  0  0  0  0  0  0  0  0
   32.5205   36.6538   57.0859 H   0  0  0  0  0  0  0  0  0  0  0  0
   33.7974   40.2830   54.8039 H   0  0  0  0  0  0  0  0  0  0  0  0
   35.5229   39.7976   54.7920 H   0  0  0  0  0  0  0  0  0  0  0  0
   32.3937   36.8223   63.3938 H   0  0  0  0  0  0  0  0  0  0  0  0
   32.9732   38.2976   65.3467 H   0  0  0  0  0  0  0  0  0  0  0  0
   32.0419   39.7965   67.0623 H   0  0  0  0  0  0  0  0  0  0  0  0
   28.3973   40.0658   64.8592 H   0  0  0  0  0  0  0  0  0  0  0  0
   29.3239   38.5733   63.1355 H   0  0  0  0  0  0  0  0  0  0  0  0
  1  2  2  0  0  0  0
  2  3  1  0  0  0  0
  2 14  1  0  0  0  0
  3  4  1  0  0  0  0
  3 22  1  0  0  0  0
  4  5  1  0  0  0  0
  4 23  1  0  0  0  0
  4 24  1  0  0  0  0
  5 10  2  0  0  0  0
  5  6  1  0  0  0  0
  6  7  2  0  0  0  0
  6 25  1  0  0  0  0
  7  8  1  0  0  0  0
  7 26  1  0  0  0  0
  8 13  1  0  0  0  0
  8  9  2  0  0  0  0
  9 10  1  0  0  0  0
  9 11  1  0  0  0  0
 10 27  1  0  0  0  0
 11 12  1  0  0  0  0
 12 13  1  0  0  0  0
 12 28  1  0  0  0  0
 12 29  1  0  0  0  0
 14 15  1  0  0  0  0
 14 30  1  0  0  0  0
 15 21  2  0  0  0  0
 15 16  1  0  0  0  0
 16 17  2  0  0  0  0
 16 31  1  0  0  0  0
 17 18  1  0  0  0  0
 17 32  1  0  0  0  0
 18 19  1  0  0  0  0
 18 20  2  0  0  0  0
 20 21  1  0  0  0  0
 20 33  1  0  0  0  0
 21 34  1  0  0  0  0
M  END
$$$$
