ZINC000000022385      none
 OpenBabel11202420153D

 30 31  0  0  0  0  0  0  0  0999 V2000
   32.3916   37.4124   67.1039 C   0  0  0  0  0  0  0  0  0  0  0  0
   32.9422   37.8979   65.7614 C   0  0  0  0  0  0  0  0  0  0  0  0
   33.0560   36.5014   64.6155 S   0  0  0  0  0  0  0  0  0  0  0  0
   31.3642   36.0119   64.5607 C   0  0  0  0  0  0  0  0  0  0  0  0
   30.6923   35.6294   65.6034 N   0  0  0  0  0  0  0  0  0  0  0  0
   29.3280   35.3048   65.1578 C   0  0  0  0  0  0  0  0  0  0  0  0
   29.3549   35.5809   63.6675 C   0  0  0  0  0  0  0  0  0  0  0  0
   28.4428   35.4559   62.8782 O   0  0  0  0  0  0  0  0  0  0  0  0
   30.6136   35.9933   63.4082 N   0  0  0  0  0  0  0  0  0  0  0  0
   31.0885   36.3580   62.1407 C   0  0  0  0  0  0  0  0  0  0  0  0
   31.6596   35.4025   61.3107 C   0  0  0  0  0  0  0  0  0  0  0  0
   32.1263   35.7642   60.0623 C   0  0  0  0  0  0  0  0  0  0  0  0
   32.0255   37.0778   59.6384 C   0  0  0  0  0  0  0  0  0  0  0  0
   32.6135   37.5295   58.0688 Cl  0  0  0  0  0  0  0  0  0  0  0  0
   31.4563   38.0316   60.4635 C   0  0  0  0  0  0  0  0  0  0  0  0
   30.9876   37.6747   61.7129 C   0  0  0  0  0  0  0  0  0  0  0  0
   30.3682   38.7141   62.6112 C   0  0  0  0  0  0  0  0  0  0  0  0
   31.4011   36.9821   66.9561 H   0  0  0  0  0  0  0  0  0  0  0  0
   33.0584   36.6560   67.5179 H   0  0  0  0  0  0  0  0  0  0  0  0
   32.3232   38.2534   67.7940 H   0  0  0  0  0  0  0  0  0  0  0  0
   33.9327   38.3281   65.9092 H   0  0  0  0  0  0  0  0  0  0  0  0
   32.2755   38.6543   65.3474 H   0  0  0  0  0  0  0  0  0  0  0  0
   29.1021   34.2561   65.3513 H   0  0  0  0  0  0  0  0  0  0  0  0
   28.6009   35.9491   65.6520 H   0  0  0  0  0  0  0  0  0  0  0  0
   31.7385   34.3773   61.6410 H   0  0  0  0  0  0  0  0  0  0  0  0
   32.5707   35.0214   59.4164 H   0  0  0  0  0  0  0  0  0  0  0  0
   31.3824   39.0569   60.1321 H   0  0  0  0  0  0  0  0  0  0  0  0
   29.2955   38.7635   62.4239 H   0  0  0  0  0  0  0  0  0  0  0  0
   30.5430   38.4449   63.6529 H   0  0  0  0  0  0  0  0  0  0  0  0
   30.8178   39.6857   62.4066 H   0  0  0  0  0  0  0  0  0  0  0  0
  1  2  1  0  0  0  0
  1 18  1  0  0  0  0
  1 19  1  0  0  0  0
  1 20  1  0  0  0  0
  2  3  1  0  0  0  0
  2 21  1  0  0  0  0
  2 22  1  0  0  0  0
  3  4  1  0  0  0  0
  4  9  1  0  0  0  0
  4  5  2  0  0  0  0
  5  6  1  0  0  0  0
  6  7  1  0  0  0  0
  6 23  1  0  0  0  0
  6 24  1  0  0  0  0
  7  8  2  0  0  0  0
  7  9  1  0  0  0  0
  9 10  1  0  0  0  0
 10 16  2  0  0  0  0
 10 11  1  0  0  0  0
 11 12  2  0  0  0  0
 11 25  1  0  0  0  0
 12 13  1  0  0  0  0
 12 26  1  0  0  0  0
 13 14  1  0  0  0  0
 13 15  2  0  0  0  0
 15 16  1  0  0  0  0
 15 27  1  0  0  0  0
 16 17  1  0  0  0  0
 17 28  1  0  0  0  0
 17 29  1  0  0  0  0
 17 30  1  0  0  0  0
M  END
$$$$
