ZINC000000049626      none
 OpenBabel11202420153D

 28 30  0  0  0  0  0  0  0  0999 V2000
   27.9025   34.2887   64.0581 O   0  0  0  0  0  0  0  0  0  0  0  0
   28.9142   34.7594   64.7577 N   0  0  0  0  0  0  0  0  0  0  0  0
   28.9571   34.5734   66.0607 O   0  0  0  0  0  0  0  0  0  0  0  0
   30.0031   35.4975   64.0793 C   0  0  0  0  0  0  0  0  0  0  0  0
   31.1344   36.0508   64.6975 C   0  0  0  0  0  0  0  0  0  0  0  0
   31.8710   36.6187   63.7782 N   0  0  0  0  0  0  0  0  0  0  0  0
   31.2328   36.4563   62.5416 N   0  0  0  0  0  0  0  0  0  0  0  0
   31.6903   36.9167   61.3230 C   0  0  0  0  0  0  0  0  0  0  0  0
   31.8623   38.3204   61.2298 C   0  0  0  0  0  0  0  0  0  0  0  0
   32.2851   39.0331   60.1891 N   0  0  0  0  0  0  0  0  0  0  0  0
   32.6525   38.5736   58.9641 C   0  0  0  0  0  0  0  0  0  0  0  0
   33.0470   39.6016   58.1032 C   0  0  0  0  0  0  0  0  0  0  0  0
   33.4451   39.3032   56.8339 C   0  0  0  0  0  0  0  0  0  0  0  0
   33.4720   37.9873   56.3623 C   0  0  0  0  0  0  0  0  0  0  0  0
   33.1023   36.9417   57.1472 C   0  0  0  0  0  0  0  0  0  0  0  0
   32.6791   37.1849   58.4733 C   0  0  0  0  0  0  0  0  0  0  0  0
   32.3457   36.0691   59.1129 N   0  0  0  0  0  0  0  0  0  0  0  0
   31.9168   35.9328   60.3584 C   0  0  0  0  0  0  0  0  0  0  0  0
   30.0823   35.7571   62.7562 C   0  0  0  0  0  0  0  0  0  0  0  0
   31.3601   36.0113   65.7529 H   0  0  0  0  0  0  0  0  0  0  0  0
   31.6192   38.8840   62.1184 H   0  0  0  0  0  0  0  0  0  0  0  0
   32.3367   39.9929   60.3197 H   0  0  0  0  0  0  0  0  0  0  0  0
   33.0359   40.6272   58.4415 H   0  0  0  0  0  0  0  0  0  0  0  0
   33.7479   40.1040   56.1757 H   0  0  0  0  0  0  0  0  0  0  0  0
   33.7949   37.7973   55.3494 H   0  0  0  0  0  0  0  0  0  0  0  0
   33.1321   35.9335   56.7611 H   0  0  0  0  0  0  0  0  0  0  0  0
   31.7101   34.9197   60.6705 H   0  0  0  0  0  0  0  0  0  0  0  0
   29.3644   35.4640   62.0044 H   0  0  0  0  0  0  0  0  0  0  0  0
  1  2  2  0  0  0  0
  2  3  2  0  0  0  0
  2  4  1  0  0  0  0
  4 19  2  0  0  0  0
  4  5  1  0  0  0  0
  5  6  2  0  0  0  0
  5 20  1  0  0  0  0
  6  7  1  0  0  0  0
  7  8  1  0  0  0  0
  7 19  1  0  0  0  0
  8 18  1  0  0  0  0
  8  9  2  0  0  0  0
  9 10  1  0  0  0  0
  9 21  1  0  0  0  0
 10 11  1  0  0  0  0
 10 22  1  0  0  0  0
 11 16  2  0  0  0  0
 11 12  1  0  0  0  0
 12 13  2  0  0  0  0
 12 23  1  0  0  0  0
 13 14  1  0  0  0  0
 13 24  1  0  0  0  0
 14 15  2  0  0  0  0
 14 25  1  0  0  0  0
 15 16  1  0  0  0  0
 15 26  1  0  0  0  0
 16 17  1  0  0  0  0
 17 18  2  0  0  0  0
 18 27  1  0  0  0  0
 19 28  1  0  0  0  0
M  END
$$$$
