ZINC000000039744      none
 OpenBabel11202420153D

 28 28  0  0  0  0  0  0  0  0999 V2000
   32.7787   33.8326   57.5388 C   0  0  0  0  0  0  0  0  0  0  0  0
   32.9979   35.6293   57.5365 S   0  0  0  0  0  0  0  0  0  0  0  0
   32.2301   36.0331   59.0701 C   0  0  0  0  0  0  0  0  0  0  0  0
   31.7143   35.0732   59.8198 N   0  0  0  0  0  0  0  0  0  0  0  0
   31.1452   35.3192   60.9452 N   0  0  0  0  0  0  0  0  0  0  0  0
   31.0468   36.5428   61.4096 C   0  0  0  0  0  0  0  0  0  0  0  0
   30.3735   36.8017   62.7327 C   0  0  0  0  0  0  0  0  0  0  0  0
   29.8945   35.4767   63.3291 C   0  0  0  0  0  0  0  0  0  0  0  0
   31.3674   37.4623   63.6902 C   0  0  0  0  0  0  0  0  0  0  0  0
   29.1749   37.7290   62.5222 C   0  0  0  0  0  0  0  0  0  0  0  0
   31.5768   37.6143   60.6588 C   0  0  0  0  0  0  0  0  0  0  0  0
   31.5007   38.7618   61.0646 O   0  0  0  0  0  0  0  0  0  0  0  0
   32.1763   37.3324   59.4792 N   0  0  0  0  0  0  0  0  0  0  0  0
   32.7118   38.3282   58.7127 N   0  0  0  0  0  0  0  0  0  0  0  0
   31.7154   33.5963   57.5775 H   0  0  0  0  0  0  0  0  0  0  0  0
   33.2115   33.4126   56.6309 H   0  0  0  0  0  0  0  0  0  0  0  0
   33.2775   33.4068   58.4095 H   0  0  0  0  0  0  0  0  0  0  0  0
   30.7484   34.8159   63.4791 H   0  0  0  0  0  0  0  0  0  0  0  0
   29.4075   35.6638   64.2861 H   0  0  0  0  0  0  0  0  0  0  0  0
   29.1864   35.0061   62.6470 H   0  0  0  0  0  0  0  0  0  0  0  0
   31.7086   38.4063   63.2653 H   0  0  0  0  0  0  0  0  0  0  0  0
   30.8804   37.6494   64.6472 H   0  0  0  0  0  0  0  0  0  0  0  0
   32.2213   36.8015   63.8402 H   0  0  0  0  0  0  0  0  0  0  0  0
   28.4668   37.2585   61.8401 H   0  0  0  0  0  0  0  0  0  0  0  0
   28.6879   37.9162   63.4792 H   0  0  0  0  0  0  0  0  0  0  0  0
   29.5161   38.6730   62.0973 H   0  0  0  0  0  0  0  0  0  0  0  0
   33.1164   37.9557   57.8668 H   0  0  0  0  0  0  0  0  0  0  0  0
   32.0218   39.0340   58.5033 H   0  0  0  0  0  0  0  0  0  0  0  0
  1  2  1  0  0  0  0
  1 15  1  0  0  0  0
  1 16  1  0  0  0  0
  1 17  1  0  0  0  0
  2  3  1  0  0  0  0
  3 13  1  0  0  0  0
  3  4  2  0  0  0  0
  4  5  1  0  0  0  0
  5  6  2  0  0  0  0
  6  7  1  0  0  0  0
  6 11  1  0  0  0  0
  7  8  1  0  0  0  0
  7  9  1  0  0  0  0
  7 10  1  0  0  0  0
  8 18  1  0  0  0  0
  8 19  1  0  0  0  0
  8 20  1  0  0  0  0
  9 21  1  0  0  0  0
  9 22  1  0  0  0  0
  9 23  1  0  0  0  0
 10 24  1  0  0  0  0
 10 25  1  0  0  0  0
 10 26  1  0  0  0  0
 11 12  2  0  0  0  0
 11 13  1  0  0  0  0
 13 14  1  0  0  0  0
 14 27  1  0  0  0  0
 14 28  1  0  0  0  0
M  END
$$$$
