ZINC000000054851      none
 OpenBabel11202420153D

 27 29  0  0  0  0  0  0  0  0999 V2000
   31.1873   38.2737   58.5034 Cl  0  0  0  0  0  0  0  0  0  0  0  0
   31.4353   36.8415   59.4525 C   0  0  0  0  0  0  0  0  0  0  0  0
   30.8614   36.7322   60.7040 C   0  0  0  0  0  0  0  0  0  0  0  0
   31.0630   35.5939   61.4633 C   0  0  0  0  0  0  0  0  0  0  0  0
   31.8349   34.5550   60.9733 C   0  0  0  0  0  0  0  0  0  0  0  0
   32.4095   34.6479   59.7229 C   0  0  0  0  0  0  0  0  0  0  0  0
   32.2112   35.7939   58.9501 C   0  0  0  0  0  0  0  0  0  0  0  0
   32.8239   35.9005   57.6103 C   0  0  0  0  0  0  0  0  0  0  0  0
   33.0877   34.9051   56.7944 N   0  0  0  0  0  0  0  0  0  0  0  0
   33.6195   35.3652   55.7170 N   0  0  0  0  0  0  0  0  0  0  0  0
   33.7164   36.6726   55.8022 C   0  0  0  0  0  0  0  0  0  0  0  0
   34.2720   37.5768   54.7745 C   0  0  0  0  0  0  0  0  0  0  0  0
   34.3130   38.9540   55.0005 C   0  0  0  0  0  0  0  0  0  0  0  0
   34.8334   39.7928   54.0373 C   0  0  0  0  0  0  0  0  0  0  0  0
   35.3149   39.2717   52.8483 C   0  0  0  0  0  0  0  0  0  0  0  0
   36.0278   40.4290   51.5336 Br  0  0  0  0  0  0  0  0  0  0  0  0
   35.2771   37.9070   52.6181 C   0  0  0  0  0  0  0  0  0  0  0  0
   34.7583   37.0577   53.5731 C   0  0  0  0  0  0  0  0  0  0  0  0
   33.2212   37.0371   57.0025 O   0  0  0  0  0  0  0  0  0  0  0  0
   30.2579   37.5392   61.0924 H   0  0  0  0  0  0  0  0  0  0  0  0
   30.6158   35.5154   62.4432 H   0  0  0  0  0  0  0  0  0  0  0  0
   31.9875   33.6688   61.5715 H   0  0  0  0  0  0  0  0  0  0  0  0
   33.0113   33.8359   59.3421 H   0  0  0  0  0  0  0  0  0  0  0  0
   33.9422   39.3611   55.9296 H   0  0  0  0  0  0  0  0  0  0  0  0
   34.8656   40.8582   54.2111 H   0  0  0  0  0  0  0  0  0  0  0  0
   35.6543   37.5066   51.6886 H   0  0  0  0  0  0  0  0  0  0  0  0
   34.7291   35.9933   53.3921 H   0  0  0  0  0  0  0  0  0  0  0  0
  1  2  1  0  0  0  0
  2  7  2  0  0  0  0
  2  3  1  0  0  0  0
  3  4  2  0  0  0  0
  3 20  1  0  0  0  0
  4  5  1  0  0  0  0
  4 21  1  0  0  0  0
  5  6  2  0  0  0  0
  5 22  1  0  0  0  0
  6  7  1  0  0  0  0
  6 23  1  0  0  0  0
  7  8  1  0  0  0  0
  8 19  1  0  0  0  0
  8  9  2  0  0  0  0
  9 10  1  0  0  0  0
 10 11  2  0  0  0  0
 11 12  1  0  0  0  0
 11 19  1  0  0  0  0
 12 18  2  0  0  0  0
 12 13  1  0  0  0  0
 13 14  2  0  0  0  0
 13 24  1  0  0  0  0
 14 15  1  0  0  0  0
 14 25  1  0  0  0  0
 15 16  1  0  0  0  0
 15 17  2  0  0  0  0
 17 18  1  0  0  0  0
 17 26  1  0  0  0  0
 18 27  1  0  0  0  0
M  END
$$$$
