ZINC000000031867      none
 OpenBabel11202420163D

 36 39  0  0  0  0  0  0  0  0999 V2000
   32.7672   35.6114   58.0482 N   0  0  0  0  0  0  0  0  0  0  0  0
   32.6373   36.9004   58.5362 C   0  0  0  0  0  0  0  0  0  0  0  0
   33.0062   38.0718   57.8947 C   0  0  0  0  0  0  0  0  0  0  0  0
   33.6139   38.1699   56.5555 C   0  0  0  0  0  0  0  0  0  0  0  0
   33.8878   37.1513   55.7734 N   0  0  0  0  0  0  0  0  0  0  0  0
   34.4386   37.5996   54.6177 C   0  0  0  0  0  0  0  0  0  0  0  0
   34.9058   36.9588   53.4660 C   0  0  0  0  0  0  0  0  0  0  0  0
   35.4237   37.7043   52.4314 C   0  0  0  0  0  0  0  0  0  0  0  0
   35.4869   39.0873   52.5223 C   0  0  0  0  0  0  0  0  0  0  0  0
   35.0305   39.7353   53.6513 C   0  0  0  0  0  0  0  0  0  0  0  0
   34.5048   39.0009   54.7040 C   0  0  0  0  0  0  0  0  0  0  0  0
   33.9728   39.3380   55.9361 N   0  0  0  0  0  0  0  0  0  0  0  0
   33.8745   40.2338   56.2951 H   0  0  0  0  0  0  0  0  0  0  0  0
   32.7109   39.1031   58.7042 N   0  0  0  0  0  0  0  0  0  0  0  0
   32.1965   38.6643   59.7989 N   0  0  0  0  0  0  0  0  0  0  0  0
   32.1292   37.2656   59.7384 N   0  0  0  0  0  0  0  0  0  0  0  0
   31.6105   36.3706   60.7756 C   0  0  0  0  0  0  0  0  0  0  0  0
   31.1427   37.1850   61.9542 C   0  0  0  0  0  0  0  0  0  0  0  0
   32.0194   37.4813   62.9812 C   0  0  0  0  0  0  0  0  0  0  0  0
   31.5917   38.2325   64.0599 C   0  0  0  0  0  0  0  0  0  0  0  0
   30.2847   38.6787   64.1167 C   0  0  0  0  0  0  0  0  0  0  0  0
   29.4065   38.3780   63.0922 C   0  0  0  0  0  0  0  0  0  0  0  0
   29.8357   37.6312   62.0109 C   0  0  0  0  0  0  0  0  0  0  0  0
   32.4785   34.8577   58.5862 H   0  0  0  0  0  0  0  0  0  0  0  0
   33.1432   35.4623   57.1665 H   0  0  0  0  0  0  0  0  0  0  0  0
   34.8600   35.8826   53.3883 H   0  0  0  0  0  0  0  0  0  0  0  0
   35.7838   37.2089   51.5419 H   0  0  0  0  0  0  0  0  0  0  0  0
   35.8960   39.6605   51.7035 H   0  0  0  0  0  0  0  0  0  0  0  0
   35.0821   40.8122   53.7153 H   0  0  0  0  0  0  0  0  0  0  0  0
   30.7743   35.7970   60.3757 H   0  0  0  0  0  0  0  0  0  0  0  0
   32.3988   35.6890   61.0949 H   0  0  0  0  0  0  0  0  0  0  0  0
   33.0394   37.1289   62.9389 H   0  0  0  0  0  0  0  0  0  0  0  0
   32.2777   38.4671   64.8604 H   0  0  0  0  0  0  0  0  0  0  0  0
   29.9493   39.2618   64.9615 H   0  0  0  0  0  0  0  0  0  0  0  0
   28.3853   38.7263   63.1368 H   0  0  0  0  0  0  0  0  0  0  0  0
   29.1496   37.3961   61.2108 H   0  0  0  0  0  0  0  0  0  0  0  0
  1  2  1  0  0  0  0
  1 24  1  0  0  0  0
  1 25  1  0  0  0  0
  2 16  1  0  0  0  0
  2  3  2  0  0  0  0
  3  4  1  0  0  0  0
  3 14  1  0  0  0  0
  4 12  1  0  0  0  0
  4  5  2  0  0  0  0
  5  6  1  0  0  0  0
  6 11  2  0  0  0  0
  6  7  1  0  0  0  0
  7  8  2  0  0  0  0
  7 26  1  0  0  0  0
  8  9  1  0  0  0  0
  8 27  1  0  0  0  0
  9 10  2  0  0  0  0
  9 28  1  0  0  0  0
 10 11  1  0  0  0  0
 10 29  1  0  0  0  0
 11 12  1  0  0  0  0
 12 13  1  0  0  0  0
 14 15  2  0  0  0  0
 15 16  1  0  0  0  0
 16 17  1  0  0  0  0
 17 18  1  0  0  0  0
 17 30  1  0  0  0  0
 17 31  1  0  0  0  0
 18 23  2  0  0  0  0
 18 19  1  0  0  0  0
 19 20  2  0  0  0  0
 19 32  1  0  0  0  0
 20 21  1  0  0  0  0
 20 33  1  0  0  0  0
 21 22  2  0  0  0  0
 21 34  1  0  0  0  0
 22 23  1  0  0  0  0
 22 35  1  0  0  0  0
 23 36  1  0  0  0  0
M  END
$$$$
