ZINC000000050188      none
 OpenBabel11202420153D

 25 25  0  0  0  0  0  0  0  0999 V2000
   35.3923   31.3471   55.0515 C   0  0  0  0  0  0  0  0  0  0  0  0
   34.0617   31.8364   55.3659 O   0  0  0  0  0  0  0  0  0  0  0  0
   33.8282   33.1422   55.1606 C   0  0  0  0  0  0  0  0  0  0  0  0
   34.7065   33.8529   54.7323 O   0  0  0  0  0  0  0  0  0  0  0  0
   32.4708   33.7217   55.4643 C   0  0  0  0  0  0  0  0  0  0  0  0
   32.6159   35.1254   55.8579 N   0  0  0  0  0  0  0  0  0  0  0  0
   32.7940   35.4468   57.1546 C   0  0  0  0  0  0  0  0  0  0  0  0
   32.8342   34.5721   57.9976 O   0  0  0  0  0  0  0  0  0  0  0  0
   32.9405   36.8634   57.5516 C   0  0  0  0  0  0  0  0  0  0  0  0
   33.4503   37.7957   56.6465 C   0  0  0  0  0  0  0  0  0  0  0  0
   33.5841   39.1162   57.0231 C   0  0  0  0  0  0  0  0  0  0  0  0
   33.2139   39.5170   58.2946 C   0  0  0  0  0  0  0  0  0  0  0  0
   32.7083   38.5978   59.1966 C   0  0  0  0  0  0  0  0  0  0  0  0
   32.5694   37.2743   58.8327 C   0  0  0  0  0  0  0  0  0  0  0  0
   36.1265   31.8752   55.6598 H   0  0  0  0  0  0  0  0  0  0  0  0
   35.4459   30.2792   55.2625 H   0  0  0  0  0  0  0  0  0  0  0  0
   35.6030   31.5201   53.9961 H   0  0  0  0  0  0  0  0  0  0  0  0
   32.0106   33.1619   56.2786 H   0  0  0  0  0  0  0  0  0  0  0  0
   31.8409   33.6564   54.5772 H   0  0  0  0  0  0  0  0  0  0  0  0
   32.5839   35.8235   55.1851 H   0  0  0  0  0  0  0  0  0  0  0  0
   33.7435   37.4834   55.6552 H   0  0  0  0  0  0  0  0  0  0  0  0
   33.9787   39.8386   56.3240 H   0  0  0  0  0  0  0  0  0  0  0  0
   33.3203   40.5520   58.5843 H   0  0  0  0  0  0  0  0  0  0  0  0
   32.4214   38.9171   60.1877 H   0  0  0  0  0  0  0  0  0  0  0  0
   32.1745   36.5577   59.5378 H   0  0  0  0  0  0  0  0  0  0  0  0
  1  2  1  0  0  0  0
  1 15  1  0  0  0  0
  1 16  1  0  0  0  0
  1 17  1  0  0  0  0
  2  3  1  0  0  0  0
  3  4  2  0  0  0  0
  3  5  1  0  0  0  0
  5  6  1  0  0  0  0
  5 18  1  0  0  0  0
  5 19  1  0  0  0  0
  6  7  1  0  0  0  0
  6 20  1  0  0  0  0
  7  8  2  0  0  0  0
  7  9  1  0  0  0  0
  9 14  2  0  0  0  0
  9 10  1  0  0  0  0
 10 11  2  0  0  0  0
 10 21  1  0  0  0  0
 11 12  1  0  0  0  0
 11 22  1  0  0  0  0
 12 13  2  0  0  0  0
 12 23  1  0  0  0  0
 13 14  1  0  0  0  0
 13 24  1  0  0  0  0
 14 25  1  0  0  0  0
M  END
$$$$
