ZINC000000035861      none
 OpenBabel11202420153D

 32 33  0  0  0  0  0  0  0  0999 V2000
   32.5142   33.5515   54.6142 C   0  0  0  0  0  0  0  0  0  0  0  0
   33.6543   34.4237   55.1440 C   0  0  0  0  0  0  0  0  0  0  0  0
   33.9735   35.5197   54.1254 C   0  0  0  0  0  0  0  0  0  0  0  0
   34.8962   33.5586   55.3684 C   0  0  0  0  0  0  0  0  0  0  0  0
   33.2396   35.0551   56.4480 C   0  0  0  0  0  0  0  0  0  0  0  0
   33.1983   36.4329   56.5641 C   0  0  0  0  0  0  0  0  0  0  0  0
   32.8189   37.0166   57.7556 C   0  0  0  0  0  0  0  0  0  0  0  0
   32.4773   36.2149   58.8436 C   0  0  0  0  0  0  0  0  0  0  0  0
   32.0693   36.8362   60.1269 C   0  0  0  0  0  0  0  0  0  0  0  0
   31.4522   38.0287   60.1845 C   0  0  0  0  0  0  0  0  0  0  0  0
   31.1405   38.4094   61.8764 S   0  0  0  0  0  0  0  0  0  0  0  0
   31.8884   36.8902   62.3592 C   0  0  0  0  0  0  0  0  0  0  0  0
   32.0267   36.4456   63.6640 N   0  0  0  0  0  0  0  0  0  0  0  0
   32.2892   36.2516   61.3039 N   0  0  0  0  0  0  0  0  0  0  0  0
   32.5263   34.8271   58.7225 C   0  0  0  0  0  0  0  0  0  0  0  0
   32.9013   34.2545   57.5242 C   0  0  0  0  0  0  0  0  0  0  0  0
   31.6295   34.1678   54.4545 H   0  0  0  0  0  0  0  0  0  0  0  0
   32.8142   33.0950   53.6710 H   0  0  0  0  0  0  0  0  0  0  0  0
   32.2868   32.7707   55.3399 H   0  0  0  0  0  0  0  0  0  0  0  0
   34.7857   36.1411   54.5027 H   0  0  0  0  0  0  0  0  0  0  0  0
   34.2734   35.0632   53.1821 H   0  0  0  0  0  0  0  0  0  0  0  0
   33.0887   36.1360   53.9656 H   0  0  0  0  0  0  0  0  0  0  0  0
   34.6687   32.7778   56.0941 H   0  0  0  0  0  0  0  0  0  0  0  0
   35.1962   33.1020   54.4252 H   0  0  0  0  0  0  0  0  0  0  0  0
   35.7084   34.1800   55.7458 H   0  0  0  0  0  0  0  0  0  0  0  0
   33.4631   37.0530   55.7204 H   0  0  0  0  0  0  0  0  0  0  0  0
   32.7863   38.0924   57.8448 H   0  0  0  0  0  0  0  0  0  0  0  0
   31.1885   38.6458   59.3384 H   0  0  0  0  0  0  0  0  0  0  0  0
   31.6977   36.9874   64.3984 H   0  0  0  0  0  0  0  0  0  0  0  0
   32.4526   35.5928   63.8433 H   0  0  0  0  0  0  0  0  0  0  0  0
   32.2667   34.2012   59.5635 H   0  0  0  0  0  0  0  0  0  0  0  0
   32.9353   33.1793   57.4280 H   0  0  0  0  0  0  0  0  0  0  0  0
  1  2  1  0  0  0  0
  1 17  1  0  0  0  0
  1 18  1  0  0  0  0
  1 19  1  0  0  0  0
  2  3  1  0  0  0  0
  2  4  1  0  0  0  0
  2  5  1  0  0  0  0
  3 20  1  0  0  0  0
  3 21  1  0  0  0  0
  3 22  1  0  0  0  0
  4 23  1  0  0  0  0
  4 24  1  0  0  0  0
  4 25  1  0  0  0  0
  5 16  2  0  0  0  0
  5  6  1  0  0  0  0
  6  7  2  0  0  0  0
  6 26  1  0  0  0  0
  7  8  1  0  0  0  0
  7 27  1  0  0  0  0
  8  9  1  0  0  0  0
  8 15  2  0  0  0  0
  9 14  1  0  0  0  0
  9 10  2  0  0  0  0
 10 11  1  0  0  0  0
 10 28  1  0  0  0  0
 11 12  1  0  0  0  0
 12 13  1  0  0  0  0
 12 14  2  0  0  0  0
 13 29  1  0  0  0  0
 13 30  1  0  0  0  0
 15 16  1  0  0  0  0
 15 31  1  0  0  0  0
 16 32  1  0  0  0  0
M  END
$$$$
