ZINC000000029911      none
 OpenBabel11202420163D

 43 44  0  0  0  0  0  0  0  0999 V2000
   33.7796   36.4419   55.7697 C   0  0  0  0  0  0  0  0  0  0  0  0
   33.1856   35.5168   56.6825 O   0  0  0  0  0  0  0  0  0  0  0  0
   32.7310   36.0181   57.8599 C   0  0  0  0  0  0  0  0  0  0  0  0
   32.8496   37.3755   58.1266 C   0  0  0  0  0  0  0  0  0  0  0  0
   32.3947   37.8882   59.3219 C   0  0  0  0  0  0  0  0  0  0  0  0
   31.8020   37.0436   60.2640 C   0  0  0  0  0  0  0  0  0  0  0  0
   31.3091   37.5921   61.5424 C   0  0  0  0  0  0  0  0  0  0  0  0
   31.8119   38.5970   62.0070 O   0  0  0  0  0  0  0  0  0  0  0  0
   30.3017   36.9791   62.1949 N   0  0  0  0  0  0  0  0  0  0  0  0
   29.8345   37.4988   63.4062 C   0  0  0  0  0  0  0  0  0  0  0  0
   29.8963   38.8656   63.6472 C   0  0  0  0  0  0  0  0  0  0  0  0
   29.4342   39.3755   64.8445 C   0  0  0  0  0  0  0  0  0  0  0  0
   28.9103   38.5272   65.8029 C   0  0  0  0  0  0  0  0  0  0  0  0
   28.8473   37.1664   65.5662 C   0  0  0  0  0  0  0  0  0  0  0  0
   29.3026   36.6505   64.3684 C   0  0  0  0  0  0  0  0  0  0  0  0
   29.2279   35.1680   64.1086 C   0  0  0  0  0  0  0  0  0  0  0  0
   30.0397   34.4226   65.1700 C   0  0  0  0  0  0  0  0  0  0  0  0
   27.7685   34.7124   64.1699 C   0  0  0  0  0  0  0  0  0  0  0  0
   31.6774   35.6783   59.9933 C   0  0  0  0  0  0  0  0  0  0  0  0
   32.1407   35.1697   58.7954 C   0  0  0  0  0  0  0  0  0  0  0  0
   32.0213   33.8415   58.5289 O   0  0  0  0  0  0  0  0  0  0  0  0
   31.4062   33.0312   59.5324 C   0  0  0  0  0  0  0  0  0  0  0  0
   34.0990   35.9124   54.8721 H   0  0  0  0  0  0  0  0  0  0  0  0
   33.0501   37.2059   55.5005 H   0  0  0  0  0  0  0  0  0  0  0  0
   34.6424   36.9132   56.2400 H   0  0  0  0  0  0  0  0  0  0  0  0
   33.3035   38.0301   57.3975 H   0  0  0  0  0  0  0  0  0  0  0  0
   32.4923   38.9437   59.5288 H   0  0  0  0  0  0  0  0  0  0  0  0
   29.9006   36.1774   61.8242 H   0  0  0  0  0  0  0  0  0  0  0  0
   30.3049   39.5285   62.8991 H   0  0  0  0  0  0  0  0  0  0  0  0
   29.4823   40.4379   65.0326 H   0  0  0  0  0  0  0  0  0  0  0  0
   28.5499   38.9286   66.7385 H   0  0  0  0  0  0  0  0  0  0  0  0
   28.4376   36.5067   66.3167 H   0  0  0  0  0  0  0  0  0  0  0  0
   29.6351   34.9511   63.1211 H   0  0  0  0  0  0  0  0  0  0  0  0
   31.0794   34.7473   65.1263 H   0  0  0  0  0  0  0  0  0  0  0  0
   29.6326   34.6395   66.1575 H   0  0  0  0  0  0  0  0  0  0  0  0
   29.9858   33.3504   64.9821 H   0  0  0  0  0  0  0  0  0  0  0  0
   27.1901   35.2433   63.4138 H   0  0  0  0  0  0  0  0  0  0  0  0
   27.7145   33.6400   63.9820 H   0  0  0  0  0  0  0  0  0  0  0  0
   27.3613   34.9292   65.1575 H   0  0  0  0  0  0  0  0  0  0  0  0
   31.2201   35.0222   60.7191 H   0  0  0  0  0  0  0  0  0  0  0  0
   31.3740   31.9956   59.1939 H   0  0  0  0  0  0  0  0  0  0  0  0
   31.9838   33.0941   60.4547 H   0  0  0  0  0  0  0  0  0  0  0  0
   30.3917   33.3857   59.7143 H   0  0  0  0  0  0  0  0  0  0  0  0
  1  2  1  0  0  0  0
  1 23  1  0  0  0  0
  1 24  1  0  0  0  0
  1 25  1  0  0  0  0
  2  3  1  0  0  0  0
  3 20  2  0  0  0  0
  3  4  1  0  0  0  0
  4  5  2  0  0  0  0
  4 26  1  0  0  0  0
  5  6  1  0  0  0  0
  5 27  1  0  0  0  0
  6  7  1  0  0  0  0
  6 19  2  0  0  0  0
  7  8  2  0  0  0  0
  7  9  1  0  0  0  0
  9 10  1  0  0  0  0
  9 28  1  0  0  0  0
 10 15  2  0  0  0  0
 10 11  1  0  0  0  0
 11 12  2  0  0  0  0
 11 29  1  0  0  0  0
 12 13  1  0  0  0  0
 12 30  1  0  0  0  0
 13 14  2  0  0  0  0
 13 31  1  0  0  0  0
 14 15  1  0  0  0  0
 14 32  1  0  0  0  0
 15 16  1  0  0  0  0
 16 17  1  0  0  0  0
 16 18  1  0  0  0  0
 16 33  1  0  0  0  0
 17 34  1  0  0  0  0
 17 35  1  0  0  0  0
 17 36  1  0  0  0  0
 18 37  1  0  0  0  0
 18 38  1  0  0  0  0
 18 39  1  0  0  0  0
 19 20  1  0  0  0  0
 19 40  1  0  0  0  0
 20 21  1  0  0  0  0
 21 22  1  0  0  0  0
 22 41  1  0  0  0  0
 22 42  1  0  0  0  0
 22 43  1  0  0  0  0
M  END
$$$$
