ZINC000000001131      none
 OpenBabel11202420153D

 18 19  0  0  0  0  0  0  0  0999 V2000
   33.1481   40.4324   59.2713 O   0  0  0  0  0  0  0  0  0  0  0  0
   33.0073   39.1483   58.8490 C   0  0  0  0  0  0  0  0  0  0  0  0
   33.3724   38.7955   57.5694 C   0  0  0  0  0  0  0  0  0  0  0  0
   34.0134   40.0016   56.4979 Cl  0  0  0  0  0  0  0  0  0  0  0  0
   33.2337   37.4832   57.1231 C   0  0  0  0  0  0  0  0  0  0  0  0
   32.7342   36.5146   57.9411 C   0  0  0  0  0  0  0  0  0  0  0  0
   32.5716   34.8860   57.3627 Cl  0  0  0  0  0  0  0  0  0  0  0  0
   32.3563   36.8358   59.2556 C   0  0  0  0  0  0  0  0  0  0  0  0
   31.8302   35.8610   60.1241 C   0  0  0  0  0  0  0  0  0  0  0  0
   31.4777   36.2449   61.3865 C   0  0  0  0  0  0  0  0  0  0  0  0
   31.6377   37.5718   61.7800 C   0  0  0  0  0  0  0  0  0  0  0  0
   32.1227   38.4782   60.9667 N   0  0  0  0  0  0  0  0  0  0  0  0
   32.4868   38.1685   59.7188 C   0  0  0  0  0  0  0  0  0  0  0  0
   32.8648   40.5797   60.1840 H   0  0  0  0  0  0  0  0  0  0  0  0
   33.5265   37.2298   56.1148 H   0  0  0  0  0  0  0  0  0  0  0  0
   31.7129   34.8366   59.8026 H   0  0  0  0  0  0  0  0  0  0  0  0
   31.0748   35.5206   62.0790 H   0  0  0  0  0  0  0  0  0  0  0  0
   31.3543   37.8612   62.7812 H   0  0  0  0  0  0  0  0  0  0  0  0
  1  2  1  0  0  0  0
  1 14  1  0  0  0  0
  2 13  2  0  0  0  0
  2  3  1  0  0  0  0
  3  4  1  0  0  0  0
  3  5  2  0  0  0  0
  5  6  1  0  0  0  0
  5 15  1  0  0  0  0
  6  7  1  0  0  0  0
  6  8  2  0  0  0  0
  8 13  1  0  0  0  0
  8  9  1  0  0  0  0
  9 10  2  0  0  0  0
  9 16  1  0  0  0  0
 10 11  1  0  0  0  0
 10 17  1  0  0  0  0
 11 12  2  0  0  0  0
 11 18  1  0  0  0  0
 12 13  1  0  0  0  0
M  END
$$$$
