ZINC000000038895      none
 OpenBabel11202420153D

 39 42  0  0  1  0  0  0  0  0999 V2000
   29.5663   39.3571   69.1817 N   0  0  0  0  0  0  0  0  0  0  0  0
   29.6915   38.9154   68.1426 C   0  0  0  0  0  0  0  0  0  0  0  0
   29.8495   38.3585   66.8329 C   0  0  0  0  0  0  0  0  0  0  0  0
   29.6033   39.1310   65.7476 C   0  0  0  0  0  0  0  0  0  0  0  0
   29.2061   40.4325   65.9288 N   0  0  0  0  0  0  0  0  0  0  0  0
   29.7376   38.6554   64.4983 O   0  0  0  0  0  0  0  0  0  0  0  0
   30.4863   37.5497   64.2719 C   0  0  0  0  0  0  0  0  0  0  0  0
   30.7873   36.6778   65.2886 C   0  0  0  0  0  0  0  0  0  0  0  0
   31.5614   35.5442   65.0381 C   0  0  0  0  0  0  0  0  0  0  0  0
   32.0374   35.2737   63.7930 C   0  0  0  0  0  0  0  0  0  0  0  0
   31.7512   36.1462   62.7298 C   0  0  0  0  0  0  0  0  0  0  0  0
   32.2276   35.8953   61.4312 C   0  0  0  0  0  0  0  0  0  0  0  0
   31.9317   36.7644   60.4264 C   0  0  0  0  0  0  0  0  0  0  0  0
   31.1625   37.9017   60.6647 C   0  0  0  0  0  0  0  0  0  0  0  0
   30.6843   38.1759   61.9095 C   0  0  0  0  0  0  0  0  0  0  0  0
   30.9665   37.2922   62.9694 C   0  0  0  0  0  0  0  0  0  0  0  0
   30.2849   36.9279   66.6870 C   0  0  2  0  0  0  0  0  0  0  0  0
   31.0826   36.7190   67.3999 H   0  0  0  0  0  0  0  0  0  0  0  0
   29.1154   36.0195   66.9668 C   0  0  0  0  0  0  0  0  0  0  0  0
   28.4907   36.0567   68.1996 C   0  0  0  0  0  0  0  0  0  0  0  0
   27.4153   35.2267   68.4547 C   0  0  0  0  0  0  0  0  0  0  0  0
   26.9702   34.3526   67.4795 C   0  0  0  0  0  0  0  0  0  0  0  0
   27.5981   34.3119   66.2496 C   0  0  0  0  0  0  0  0  0  0  0  0
   27.1219   33.3760   65.2064 N   0  0  0  0  0  0  0  0  0  0  0  0
   26.1769   32.6415   65.4325 O   0  0  0  0  0  0  0  0  0  0  0  0
   27.6750   33.3403   64.1219 O   0  0  0  0  0  0  0  0  0  0  0  0
   28.6710   35.1452   65.9930 C   0  0  0  0  0  0  0  0  0  0  0  0
   29.1049   40.7883   66.8256 H   0  0  0  0  0  0  0  0  0  0  0  0
   29.0266   40.9964   65.1603 H   0  0  0  0  0  0  0  0  0  0  0  0
   31.7868   34.8676   65.8492 H   0  0  0  0  0  0  0  0  0  0  0  0
   32.6345   34.3902   63.6221 H   0  0  0  0  0  0  0  0  0  0  0  0
   32.8247   35.0177   61.2320 H   0  0  0  0  0  0  0  0  0  0  0  0
   32.2989   36.5698   59.4295 H   0  0  0  0  0  0  0  0  0  0  0  0
   30.9427   38.5756   59.8499 H   0  0  0  0  0  0  0  0  0  0  0  0
   30.0892   39.0610   62.0797 H   0  0  0  0  0  0  0  0  0  0  0  0
   28.8407   36.7367   68.9621 H   0  0  0  0  0  0  0  0  0  0  0  0
   26.9247   35.2586   69.4162 H   0  0  0  0  0  0  0  0  0  0  0  0
   26.1321   33.7016   67.6800 H   0  0  0  0  0  0  0  0  0  0  0  0
   29.1617   35.1133   65.0314 H   0  0  0  0  0  0  0  0  0  0  0  0
  1  2  3  0  0  0  0
  2  3  1  0  0  0  0
  3 17  1  0  0  0  0
  3  4  2  0  0  0  0
  4  5  1  0  0  0  0
  4  6  1  0  0  0  0
  5 28  1  0  0  0  0
  5 29  1  0  0  0  0
  6  7  1  0  0  0  0
  7 16  2  0  0  0  0
  7  8  1  0  0  0  0
  8  9  2  0  0  0  0
  8 17  1  0  0  0  0
  9 10  1  0  0  0  0
  9 30  1  0  0  0  0
 10 11  2  0  0  0  0
 10 31  1  0  0  0  0
 11 16  1  0  0  0  0
 11 12  1  0  0  0  0
 12 13  2  0  0  0  0
 12 32  1  0  0  0  0
 13 14  1  0  0  0  0
 13 33  1  0  0  0  0
 14 15  2  0  0  0  0
 14 34  1  0  0  0  0
 15 16  1  0  0  0  0
 15 35  1  0  0  0  0
 17 18  1  1  0  0  0
 17 19  1  0  0  0  0
 19 27  2  0  0  0  0
 19 20  1  0  0  0  0
 20 21  2  0  0  0  0
 20 36  1  0  0  0  0
 21 22  1  0  0  0  0
 21 37  1  0  0  0  0
 22 23  2  0  0  0  0
 22 38  1  0  0  0  0
 23 24  1  0  0  0  0
 23 27  1  0  0  0  0
 24 25  2  0  0  0  0
 24 26  2  0  0  0  0
 27 39  1  0  0  0  0
M  END
$$$$
