ZINC000000016386      none
 OpenBabel11202420153D

 28 29  0  0  1  0  0  0  0  0999 V2000
   33.0038   37.3686   56.9619 C   0  0  0  0  0  0  0  0  0  0  0  0
   32.6247   37.6668   58.3896 C   0  0  0  0  0  0  0  0  0  0  0  0
   32.1428   36.6902   59.1877 C   0  0  0  0  0  0  0  0  0  0  0  0
   31.7983   36.9795   60.4800 N   0  0  0  0  0  0  0  0  0  0  0  0
   31.2701   35.9212   61.3445 C   0  0  2  0  0  0  0  0  0  0  0  0
   31.2145   34.9716   60.8122 H   0  0  0  0  0  0  0  0  0  0  0  0
   29.8935   36.3143   61.9321 C   0  0  0  0  0  0  0  0  0  0  0  0
   29.7299   35.9324   63.2873 O   0  0  0  0  0  0  0  0  0  0  0  0
   30.8228   35.2188   63.8942 C   0  0  2  0  0  0  0  0  0  0  0  0
   30.6745   34.1420   63.8127 H   0  0  0  0  0  0  0  0  0  0  0  0
   30.9950   35.6316   65.3573 C   0  0  0  0  0  0  0  0  0  0  0  0
   29.7965   35.3393   66.0788 O   0  0  0  0  0  0  0  0  0  0  0  0
   32.2660   35.7624   62.8877 S   0  0  0  0  0  0  0  0  0  0  0  0
   31.9453   38.2255   60.9659 C   0  0  0  0  0  0  0  0  0  0  0  0
   31.6373   38.4595   62.1186 O   0  0  0  0  0  0  0  0  0  0  0  0
   32.4290   39.2164   60.1940 N   0  0  0  0  0  0  0  0  0  0  0  0
   32.5289   40.1091   60.5604 H   0  0  0  0  0  0  0  0  0  0  0  0
   32.7748   38.9734   58.9137 C   0  0  0  0  0  0  0  0  0  0  0  0
   33.2117   39.8696   58.2144 O   0  0  0  0  0  0  0  0  0  0  0  0
   33.3734   38.2773   56.4867 H   0  0  0  0  0  0  0  0  0  0  0  0
   33.7830   36.6066   56.9444 H   0  0  0  0  0  0  0  0  0  0  0  0
   32.1290   37.0061   56.4218 H   0  0  0  0  0  0  0  0  0  0  0  0
   32.0255   35.6865   58.8068 H   0  0  0  0  0  0  0  0  0  0  0  0
   29.1118   35.8402   61.3386 H   0  0  0  0  0  0  0  0  0  0  0  0
   29.7772   37.3954   61.8572 H   0  0  0  0  0  0  0  0  0  0  0  0
   31.8264   35.0797   65.7952 H   0  0  0  0  0  0  0  0  0  0  0  0
   31.1999   36.7008   65.4114 H   0  0  0  0  0  0  0  0  0  0  0  0
   29.8341   35.5756   67.0157 H   0  0  0  0  0  0  0  0  0  0  0  0
  1  2  1  0  0  0  0
  1 20  1  0  0  0  0
  1 21  1  0  0  0  0
  1 22  1  0  0  0  0
  2 18  1  0  0  0  0
  2  3  2  0  0  0  0
  3  4  1  0  0  0  0
  3 23  1  0  0  0  0
  4  5  1  0  0  0  0
  4 14  1  0  0  0  0
  5  6  1  6  0  0  0
  5 13  1  0  0  0  0
  5  7  1  0  0  0  0
  7  8  1  0  0  0  0
  7 24  1  0  0  0  0
  7 25  1  0  0  0  0
  8  9  1  0  0  0  0
  9 10  1  6  0  0  0
  9 11  1  0  0  0  0
  9 13  1  0  0  0  0
 11 12  1  0  0  0  0
 11 26  1  0  0  0  0
 11 27  1  0  0  0  0
 12 28  1  0  0  0  0
 14 15  2  0  0  0  0
 14 16  1  0  0  0  0
 16 17  1  0  0  0  0
 16 18  1  0  0  0  0
 18 19  2  0  0  0  0
M  END
$$$$
