ZINC000000001673      none
 OpenBabel11202420153D

 37 37  0  0  1  0  0  0  0  0999 V2000
   32.2036   39.4258   68.3251 N   0  3  0  0  0  0  0  0  0  0  0  0
   32.1996   38.7328   69.0584 H   0  0  0  0  0  0  0  0  0  0  0  0
   32.3871   38.9778   67.4398 H   0  0  0  0  0  0  0  0  0  0  0  0
   32.9225   40.1088   68.5118 H   0  0  0  0  0  0  0  0  0  0  0  0
   30.8958   40.0929   68.2745 C   0  0  1  0  0  0  0  0  0  0  0  0
   30.9002   40.8415   67.4823 H   0  0  0  0  0  0  0  0  0  0  0  0
   29.8057   39.0573   67.9914 C   0  0  0  0  0  0  0  0  0  0  0  0
   30.0798   38.3880   66.6693 C   0  0  0  0  0  0  0  0  0  0  0  0
   30.8556   37.2442   66.6227 C   0  0  0  0  0  0  0  0  0  0  0  0
   31.1086   36.6284   65.4128 C   0  0  0  0  0  0  0  0  0  0  0  0
   30.5877   37.1624   64.2411 C   0  0  0  0  0  0  0  0  0  0  0  0
   30.8464   36.5455   63.0151 N   0  0  0  0  0  0  0  0  0  0  0  0
   31.0556   35.0968   62.9536 C   0  0  0  0  0  0  0  0  0  0  0  0
   32.4488   34.8061   62.3918 C   0  0  0  0  0  0  0  0  0  0  0  0
   32.7064   33.0232   62.3161 Cl  0  0  0  0  0  0  0  0  0  0  0  0
   30.9088   37.3471   61.7904 C   0  0  0  0  0  0  0  0  0  0  0  0
   29.8415   36.8610   60.8078 C   0  0  0  0  0  0  0  0  0  0  0  0
   28.2108   37.0344   61.5572 Cl  0  0  0  0  0  0  0  0  0  0  0  0
   29.8040   38.3082   64.2921 C   0  0  0  0  0  0  0  0  0  0  0  0
   29.5545   38.9188   65.5054 C   0  0  0  0  0  0  0  0  0  0  0  0
   30.6217   40.7623   69.5965 C   0  0  0  0  0  0  0  0  0  0  0  0
   29.4744   40.8889   69.9894 O   0  0  0  0  0  0  0  0  0  0  0  0
   31.5471   41.1771   70.2733 O   0  0  0  0  0  1  0  0  0  0  0  0
   28.8353   39.5522   67.9538 H   0  0  0  0  0  0  0  0  0  0  0  0
   29.8013   38.3086   68.7836 H   0  0  0  0  0  0  0  0  0  0  0  0
   31.2638   36.8319   67.5337 H   0  0  0  0  0  0  0  0  0  0  0  0
   31.7146   35.7351   65.3772 H   0  0  0  0  0  0  0  0  0  0  0  0
   30.9724   34.6747   63.9550 H   0  0  0  0  0  0  0  0  0  0  0  0
   30.3021   34.6480   62.3063 H   0  0  0  0  0  0  0  0  0  0  0  0
   32.5320   35.2280   61.3902 H   0  0  0  0  0  0  0  0  0  0  0  0
   33.2024   35.2549   63.0388 H   0  0  0  0  0  0  0  0  0  0  0  0
   30.7296   38.3948   62.0325 H   0  0  0  0  0  0  0  0  0  0  0  0
   31.8946   37.2424   61.3373 H   0  0  0  0  0  0  0  0  0  0  0  0
   29.8878   37.4576   59.8967 H   0  0  0  0  0  0  0  0  0  0  0  0
   30.0207   35.8134   60.5657 H   0  0  0  0  0  0  0  0  0  0  0  0
   29.3940   38.7237   63.3834 H   0  0  0  0  0  0  0  0  0  0  0  0
   28.9486   39.8121   65.5453 H   0  0  0  0  0  0  0  0  0  0  0  0
  1  2  1  0  0  0  0
  1  3  1  0  0  0  0
  1  4  1  0  0  0  0
  1  5  1  0  0  0  0
  5  6  1  6  0  0  0
  5  7  1  0  0  0  0
  5 21  1  0  0  0  0
  7  8  1  0  0  0  0
  7 24  1  0  0  0  0
  7 25  1  0  0  0  0
  8 20  2  0  0  0  0
  8  9  1  0  0  0  0
  9 10  2  0  0  0  0
  9 26  1  0  0  0  0
 10 11  1  0  0  0  0
 10 27  1  0  0  0  0
 11 12  1  0  0  0  0
 11 19  2  0  0  0  0
 12 13  1  0  0  0  0
 12 16  1  0  0  0  0
 13 14  1  0  0  0  0
 13 28  1  0  0  0  0
 13 29  1  0  0  0  0
 14 15  1  0  0  0  0
 14 30  1  0  0  0  0
 14 31  1  0  0  0  0
 16 17  1  0  0  0  0
 16 32  1  0  0  0  0
 16 33  1  0  0  0  0
 17 18  1  0  0  0  0
 17 34  1  0  0  0  0
 17 35  1  0  0  0  0
 19 20  1  0  0  0  0
 19 36  1  0  0  0  0
 20 37  1  0  0  0  0
 21 22  2  0  0  0  0
 21 23  1  0  0  0  0
M  CHG  1   1   1
M  END
$$$$
