ZINC000000002164      none
 OpenBabel11202420153D

 15 16  0  0  0  0  0  0  0  0999 V2000
   33.4860   40.3260   58.0319 O   0  0  0  0  0  0  0  0  0  0  0  0
   33.0746   39.3191   58.5821 C   0  0  0  0  0  0  0  0  0  0  0  0
   32.5638   39.3530   59.8127 N   0  0  0  0  0  0  0  0  0  0  0  0
   32.4732   40.1445   60.3660 H   0  0  0  0  0  0  0  0  0  0  0  0
   32.0927   37.7859   60.2467 S   0  0  0  0  0  0  0  0  0  0  0  0
   32.5884   37.0033   58.7447 C   0  0  0  0  0  0  0  0  0  0  0  0
   32.5357   35.6875   58.3016 C   0  0  0  0  0  0  0  0  0  0  0  0
   33.0108   35.3696   57.0469 C   0  0  0  0  0  0  0  0  0  0  0  0
   32.9498   33.7283   56.4849 Cl  0  0  0  0  0  0  0  0  0  0  0  0
   33.5392   36.3647   56.2323 C   0  0  0  0  0  0  0  0  0  0  0  0
   33.5973   37.6582   56.6517 C   0  0  0  0  0  0  0  0  0  0  0  0
   33.1207   38.0174   57.9291 C   0  0  0  0  0  0  0  0  0  0  0  0
   32.1243   34.9173   58.9370 H   0  0  0  0  0  0  0  0  0  0  0  0
   33.9092   36.1072   55.2509 H   0  0  0  0  0  0  0  0  0  0  0  0
   34.0113   38.4147   56.0016 H   0  0  0  0  0  0  0  0  0  0  0  0
  1  2  2  0  0  0  0
  2 12  1  0  0  0  0
  2  3  1  0  0  0  0
  3  4  1  0  0  0  0
  3  5  1  0  0  0  0
  5  6  1  0  0  0  0
  6 12  2  0  0  0  0
  6  7  1  0  0  0  0
  7  8  2  0  0  0  0
  7 13  1  0  0  0  0
  8  9  1  0  0  0  0
  8 10  1  0  0  0  0
 10 11  2  0  0  0  0
 10 14  1  0  0  0  0
 11 12  1  0  0  0  0
 11 15  1  0  0  0  0
M  END
$$$$
