ZINC000000051856      none
 OpenBabel11202420153D

 29 31  0  0  0  0  0  0  0  0999 V2000
   32.2434   33.7231   54.2686 O   0  0  0  0  0  0  0  0  0  0  0  0
   33.2845   33.8448   54.8788 C   0  0  0  0  0  0  0  0  0  0  0  0
   33.5083   33.0668   56.1497 C   0  0  0  0  0  0  0  0  0  0  0  0
   32.2377   33.5100   57.3602 S   0  0  0  0  0  0  0  0  0  0  0  0
   32.5504   35.2373   57.5136 C   0  0  0  0  0  0  0  0  0  0  0  0
   32.3377   35.9454   58.5942 N   0  0  0  0  0  0  0  0  0  0  0  0
   32.6917   37.2362   58.3467 C   0  0  0  0  0  0  0  0  0  0  0  0
   32.6803   38.4024   59.1133 C   0  0  0  0  0  0  0  0  0  0  0  0
   33.1143   39.5875   58.5608 C   0  0  0  0  0  0  0  0  0  0  0  0
   33.5617   39.6276   57.2492 C   0  0  0  0  0  0  0  0  0  0  0  0
   33.5782   38.4814   56.4801 C   0  0  0  0  0  0  0  0  0  0  0  0
   33.1453   37.2812   57.0199 C   0  0  0  0  0  0  0  0  0  0  0  0
   33.0420   36.0214   56.5375 O   0  0  0  0  0  0  0  0  0  0  0  0
   34.2412   34.6759   54.4202 N   0  0  0  0  0  0  0  0  0  0  0  0
   34.0237   35.4324   53.1846 C   0  0  0  0  0  0  0  0  0  0  0  0
   34.7917   36.7448   53.0150 C   0  0  0  0  0  0  0  0  0  0  0  0
   33.2878   36.7692   53.2949 C   0  0  0  0  0  0  0  0  0  0  0  0
   34.4928   33.3045   56.5529 H   0  0  0  0  0  0  0  0  0  0  0  0
   33.4510   31.9993   55.9373 H   0  0  0  0  0  0  0  0  0  0  0  0
   32.3324   38.3760   60.1353 H   0  0  0  0  0  0  0  0  0  0  0  0
   33.1057   40.4907   59.1529 H   0  0  0  0  0  0  0  0  0  0  0  0
   33.8955   40.5630   56.8248 H   0  0  0  0  0  0  0  0  0  0  0  0
   33.9278   38.5203   55.4590 H   0  0  0  0  0  0  0  0  0  0  0  0
   35.0739   34.7733   54.9081 H   0  0  0  0  0  0  0  0  0  0  0  0
   33.8474   34.8331   52.2913 H   0  0  0  0  0  0  0  0  0  0  0  0
   35.4590   37.0452   53.8229 H   0  0  0  0  0  0  0  0  0  0  0  0
   35.1210   37.0090   52.0102 H   0  0  0  0  0  0  0  0  0  0  0  0
   32.6276   37.0496   52.4741 H   0  0  0  0  0  0  0  0  0  0  0  0
   32.9653   37.0856   54.2869 H   0  0  0  0  0  0  0  0  0  0  0  0
  1  2  2  0  0  0  0
  2  3  1  0  0  0  0
  2 14  1  0  0  0  0
  3  4  1  0  0  0  0
  3 18  1  0  0  0  0
  3 19  1  0  0  0  0
  4  5  1  0  0  0  0
  5 13  1  0  0  0  0
  5  6  2  0  0  0  0
  6  7  1  0  0  0  0
  7 12  2  0  0  0  0
  7  8  1  0  0  0  0
  8  9  2  0  0  0  0
  8 20  1  0  0  0  0
  9 10  1  0  0  0  0
  9 21  1  0  0  0  0
 10 11  2  0  0  0  0
 10 22  1  0  0  0  0
 11 12  1  0  0  0  0
 11 23  1  0  0  0  0
 12 13  1  0  0  0  0
 14 15  1  0  0  0  0
 14 24  1  0  0  0  0
 15 17  1  0  0  0  0
 15 16  1  0  0  0  0
 15 25  1  0  0  0  0
 16 17  1  0  0  0  0
 16 26  1  0  0  0  0
 16 27  1  0  0  0  0
 17 28  1  0  0  0  0
 17 29  1  0  0  0  0
M  END
$$$$
