ZINC000000025792      none
 OpenBabel11202420153D

 40 42  0  0  1  0  0  0  0  0999 V2000
   33.5494   33.2871   55.5686 C   0  0  0  0  0  0  0  0  0  0  0  0
   32.6919   33.6453   56.7550 C   0  0  0  0  0  0  0  0  0  0  0  0
   31.6050   32.8568   57.1094 C   0  0  0  0  0  0  0  0  0  0  0  0
   30.8392   33.2123   58.2013 C   0  0  0  0  0  0  0  0  0  0  0  0
   31.1306   34.2856   58.9117 N   0  0  0  0  0  0  0  0  0  0  0  0
   32.1548   35.0657   58.6027 C   0  0  0  0  0  0  0  0  0  0  0  0
   32.4220   36.1899   59.3753 N   0  0  0  0  0  0  0  0  0  0  0  0
   31.5756   36.5039   60.5291 C   0  0  2  0  0  0  0  0  0  0  0  0
   31.5425   38.0194   60.7398 C   0  0  0  0  0  0  0  0  0  0  0  0
   30.6292   38.3462   61.9254 C   0  0  0  0  0  0  0  0  0  0  0  0
   31.0834   37.5840   63.0965 N   0  0  0  0  0  0  0  0  0  0  0  0
   31.3534   38.2087   64.2599 C   0  0  0  0  0  0  0  0  0  0  0  0
   31.2217   39.4144   64.3475 O   0  0  0  0  0  0  0  0  0  0  0  0
   31.8084   37.4305   65.4258 C   0  0  0  0  0  0  0  0  0  0  0  0
   30.9702   36.8096   66.4619 C   0  0  0  0  0  0  0  0  0  0  0  0
   31.8180   36.2122   67.3132 C   0  0  0  0  0  0  0  0  0  0  0  0
   33.0768   36.4119   66.8926 O   0  0  0  0  0  0  0  0  0  0  0  0
   33.0950   37.1306   65.7660 C   0  0  0  0  0  0  0  0  0  0  0  0
   31.2374   36.1279   62.9754 C   0  0  0  0  0  0  0  0  0  0  0  0
   32.1439   35.8259   61.7779 C   0  0  0  0  0  0  0  0  0  0  0  0
   32.9693   34.7670   57.5151 C   0  0  0  0  0  0  0  0  0  0  0  0
   34.3635   32.6380   55.8914 H   0  0  0  0  0  0  0  0  0  0  0  0
   32.9436   32.7681   54.8259 H   0  0  0  0  0  0  0  0  0  0  0  0
   33.9615   34.1961   55.1305 H   0  0  0  0  0  0  0  0  0  0  0  0
   31.3614   31.9744   56.5364 H   0  0  0  0  0  0  0  0  0  0  0  0
   29.9931   32.6019   58.4803 H   0  0  0  0  0  0  0  0  0  0  0  0
   33.1712   36.7644   59.1528 H   0  0  0  0  0  0  0  0  0  0  0  0
   30.5642   36.1406   60.3471 H   0  0  0  0  0  0  0  0  0  0  0  0
   32.5501   38.3801   60.9465 H   0  0  0  0  0  0  0  0  0  0  0  0
   31.1594   38.5033   59.8414 H   0  0  0  0  0  0  0  0  0  0  0  0
   29.6032   38.0681   61.6840 H   0  0  0  0  0  0  0  0  0  0  0  0
   30.6770   39.4133   62.1430 H   0  0  0  0  0  0  0  0  0  0  0  0
   29.8921   36.8302   66.5248 H   0  0  0  0  0  0  0  0  0  0  0  0
   31.5329   35.6590   68.1957 H   0  0  0  0  0  0  0  0  0  0  0  0
   33.9782   37.4262   65.2193 H   0  0  0  0  0  0  0  0  0  0  0  0
   30.2612   35.6689   62.8195 H   0  0  0  0  0  0  0  0  0  0  0  0
   31.6878   35.7290   63.8843 H   0  0  0  0  0  0  0  0  0  0  0  0
   32.1891   34.7486   61.6183 H   0  0  0  0  0  0  0  0  0  0  0  0
   33.1459   36.2072   61.9748 H   0  0  0  0  0  0  0  0  0  0  0  0
   33.8070   35.4022   57.2678 H   0  0  0  0  0  0  0  0  0  0  0  0
  1  2  1  0  0  0  0
  1 22  1  0  0  0  0
  1 23  1  0  0  0  0
  1 24  1  0  0  0  0
  2 21  2  0  0  0  0
  2  3  1  0  0  0  0
  3  4  2  0  0  0  0
  3 25  1  0  0  0  0
  4  5  1  0  0  0  0
  4 26  1  0  0  0  0
  5  6  2  0  0  0  0
  6  7  1  0  0  0  0
  6 21  1  0  0  0  0
  7  8  1  0  0  0  0
  7 27  1  0  0  0  0
  8 20  1  0  0  0  0
  8  9  1  0  0  0  0
  8 28  1  6  0  0  0
  9 10  1  0  0  0  0
  9 29  1  0  0  0  0
  9 30  1  0  0  0  0
 10 11  1  0  0  0  0
 10 31  1  0  0  0  0
 10 32  1  0  0  0  0
 11 12  1  0  0  0  0
 11 19  1  0  0  0  0
 12 13  2  0  0  0  0
 12 14  1  0  0  0  0
 14 18  2  0  0  0  0
 14 15  1  0  0  0  0
 15 16  2  0  0  0  0
 15 33  1  0  0  0  0
 16 17  1  0  0  0  0
 16 34  1  0  0  0  0
 17 18  1  0  0  0  0
 18 35  1  0  0  0  0
 19 20  1  0  0  0  0
 19 36  1  0  0  0  0
 19 37  1  0  0  0  0
 20 38  1  0  0  0  0
 20 39  1  0  0  0  0
 21 40  1  0  0  0  0
M  END
$$$$
