ZINC000000023882      none
 OpenBabel11202420153D

 28 28  0  0  0  0  0  0  0  0999 V2000
   34.6563   32.5942   53.9325 C   0  0  0  0  0  0  0  0  0  0  0  0
   34.3481   33.3267   55.2398 C   0  0  0  0  0  0  0  0  0  0  0  0
   35.1933   32.7329   56.3685 C   0  0  0  0  0  0  0  0  0  0  0  0
   32.8640   33.1674   55.5760 C   0  0  0  0  0  0  0  0  0  0  0  0
   34.6648   34.7491   55.0891 N   0  0  0  0  0  0  0  0  0  0  0  0
   34.0373   35.4832   54.1489 C   0  0  0  0  0  0  0  0  0  0  0  0
   33.2123   34.9638   53.4224 O   0  0  0  0  0  0  0  0  0  0  0  0
   34.3519   36.9174   54.0011 C   0  0  0  0  0  0  0  0  0  0  0  0
   34.8611   37.4034   52.7940 C   0  0  0  0  0  0  0  0  0  0  0  0
   35.1479   38.7438   52.6598 C   0  0  0  0  0  0  0  0  0  0  0  0
   34.9431   39.6112   53.7234 C   0  0  0  0  0  0  0  0  0  0  0  0
   35.2313   40.9239   53.5858 F   0  0  0  0  0  0  0  0  0  0  0  0
   34.4441   39.1371   54.9251 C   0  0  0  0  0  0  0  0  0  0  0  0
   34.1468   37.7953   55.0709 C   0  0  0  0  0  0  0  0  0  0  0  0
   33.6600   37.3327   56.2432 F   0  0  0  0  0  0  0  0  0  0  0  0
   35.7136   32.7078   53.6929 H   0  0  0  0  0  0  0  0  0  0  0  0
   34.4206   31.5360   54.0446 H   0  0  0  0  0  0  0  0  0  0  0  0
   34.0542   33.0173   53.1284 H   0  0  0  0  0  0  0  0  0  0  0  0
   34.9736   33.2547   57.3001 H   0  0  0  0  0  0  0  0  0  0  0  0
   34.9576   31.6747   56.4807 H   0  0  0  0  0  0  0  0  0  0  0  0
   36.2505   32.8464   56.1291 H   0  0  0  0  0  0  0  0  0  0  0  0
   32.2619   33.5905   54.7719 H   0  0  0  0  0  0  0  0  0  0  0  0
   32.6284   32.1091   55.6883 H   0  0  0  0  0  0  0  0  0  0  0  0
   32.6443   33.6892   56.5075 H   0  0  0  0  0  0  0  0  0  0  0  0
   35.3230   35.1635   55.6687 H   0  0  0  0  0  0  0  0  0  0  0  0
   35.0253   36.7297   51.9660 H   0  0  0  0  0  0  0  0  0  0  0  0
   35.5373   39.1202   51.7254 H   0  0  0  0  0  0  0  0  0  0  0  0
   34.2868   39.8169   55.7494 H   0  0  0  0  0  0  0  0  0  0  0  0
  1  2  1  0  0  0  0
  1 16  1  0  0  0  0
  1 17  1  0  0  0  0
  1 18  1  0  0  0  0
  2  3  1  0  0  0  0
  2  4  1  0  0  0  0
  2  5  1  0  0  0  0
  3 19  1  0  0  0  0
  3 20  1  0  0  0  0
  3 21  1  0  0  0  0
  4 22  1  0  0  0  0
  4 23  1  0  0  0  0
  4 24  1  0  0  0  0
  5  6  1  0  0  0  0
  5 25  1  0  0  0  0
  6  7  2  0  0  0  0
  6  8  1  0  0  0  0
  8 14  2  0  0  0  0
  8  9  1  0  0  0  0
  9 10  2  0  0  0  0
  9 26  1  0  0  0  0
 10 11  1  0  0  0  0
 10 27  1  0  0  0  0
 11 12  1  0  0  0  0
 11 13  2  0  0  0  0
 13 14  1  0  0  0  0
 13 28  1  0  0  0  0
 14 15  1  0  0  0  0
M  END
$$$$
