ZINC000000043985      none
 OpenBabel11202420153D

 40 42  0  0  0  0  0  0  0  0999 V2000
   33.6370   35.8420   51.9872 C   0  0  0  0  0  0  0  0  0  0  0  0
   34.2563   35.5933   53.2767 O   0  0  0  0  0  0  0  0  0  0  0  0
   33.4392   35.2848   54.2959 C   0  0  0  0  0  0  0  0  0  0  0  0
   32.2458   35.2245   54.1164 O   0  0  0  0  0  0  0  0  0  0  0  0
   34.0100   35.0137   55.6641 C   0  0  0  0  0  0  0  0  0  0  0  0
   33.0588   35.3932   56.6607 O   0  0  0  0  0  0  0  0  0  0  0  0
   33.1189   36.6706   57.1150 C   0  0  0  0  0  0  0  0  0  0  0  0
   33.5656   37.6857   56.2872 C   0  0  0  0  0  0  0  0  0  0  0  0
   33.6277   38.9892   56.7510 C   0  0  0  0  0  0  0  0  0  0  0  0
   34.1177   40.0823   55.8366 C   0  0  0  0  0  0  0  0  0  0  0  0
   33.2464   39.2988   58.0415 C   0  0  0  0  0  0  0  0  0  0  0  0
   32.7935   38.2994   58.8905 C   0  0  0  0  0  0  0  0  0  0  0  0
   32.4152   38.5838   60.1551 O   0  0  0  0  0  0  0  0  0  0  0  0
   31.9775   37.6263   60.9833 C   0  0  0  0  0  0  0  0  0  0  0  0
   31.6461   37.9321   62.1146 O   0  0  0  0  0  0  0  0  0  0  0  0
   31.8865   36.2688   60.5850 C   0  0  0  0  0  0  0  0  0  0  0  0
   32.2455   35.9215   59.3306 C   0  0  0  0  0  0  0  0  0  0  0  0
   32.7268   36.9745   58.4280 C   0  0  0  0  0  0  0  0  0  0  0  0
   32.1734   34.5109   58.8153 C   0  0  0  0  0  0  0  0  0  0  0  0
   32.0713   33.5189   59.9727 C   0  0  0  0  0  0  0  0  0  0  0  0
   30.9442   33.9817   60.9043 C   0  0  0  0  0  0  0  0  0  0  0  0
   31.3904   35.2687   61.5954 C   0  0  0  0  0  0  0  0  0  0  0  0
   32.9452   36.6801   52.0719 H   0  0  0  0  0  0  0  0  0  0  0  0
   34.4075   36.0796   51.2539 H   0  0  0  0  0  0  0  0  0  0  0  0
   33.0932   34.9530   51.6678 H   0  0  0  0  0  0  0  0  0  0  0  0
   34.9252   35.5907   55.7967 H   0  0  0  0  0  0  0  0  0  0  0  0
   34.2331   33.9513   55.7606 H   0  0  0  0  0  0  0  0  0  0  0  0
   33.8682   37.4603   55.2752 H   0  0  0  0  0  0  0  0  0  0  0  0
   35.1980   40.1848   55.9392 H   0  0  0  0  0  0  0  0  0  0  0  0
   33.8730   39.8300   54.8049 H   0  0  0  0  0  0  0  0  0  0  0  0
   33.6365   41.0229   56.1045 H   0  0  0  0  0  0  0  0  0  0  0  0
   33.3003   40.3196   58.3900 H   0  0  0  0  0  0  0  0  0  0  0  0
   33.0701   34.2944   58.2346 H   0  0  0  0  0  0  0  0  0  0  0  0
   31.2973   34.4073   58.1751 H   0  0  0  0  0  0  0  0  0  0  0  0
   33.0136   33.4944   60.5200 H   0  0  0  0  0  0  0  0  0  0  0  0
   31.8444   32.5250   59.5869 H   0  0  0  0  0  0  0  0  0  0  0  0
   30.7462   33.2132   61.6514 H   0  0  0  0  0  0  0  0  0  0  0  0
   30.0417   34.1708   60.3230 H   0  0  0  0  0  0  0  0  0  0  0  0
   30.5474   35.6953   62.1391 H   0  0  0  0  0  0  0  0  0  0  0  0
   32.1919   35.0399   62.2977 H   0  0  0  0  0  0  0  0  0  0  0  0
  1  2  1  0  0  0  0
  1 23  1  0  0  0  0
  1 24  1  0  0  0  0
  1 25  1  0  0  0  0
  2  3  1  0  0  0  0
  3  4  2  0  0  0  0
  3  5  1  0  0  0  0
  5  6  1  0  0  0  0
  5 26  1  0  0  0  0
  5 27  1  0  0  0  0
  6  7  1  0  0  0  0
  7 18  2  0  0  0  0
  7  8  1  0  0  0  0
  8  9  2  0  0  0  0
  8 28  1  0  0  0  0
  9 10  1  0  0  0  0
  9 11  1  0  0  0  0
 10 29  1  0  0  0  0
 10 30  1  0  0  0  0
 10 31  1  0  0  0  0
 11 12  2  0  0  0  0
 11 32  1  0  0  0  0
 12 18  1  0  0  0  0
 12 13  1  0  0  0  0
 13 14  1  0  0  0  0
 14 15  2  0  0  0  0
 14 16  1  0  0  0  0
 16 22  1  0  0  0  0
 16 17  2  0  0  0  0
 17 18  1  0  0  0  0
 17 19  1  0  0  0  0
 19 20  1  0  0  0  0
 19 33  1  0  0  0  0
 19 34  1  0  0  0  0
 20 21  1  0  0  0  0
 20 35  1  0  0  0  0
 20 36  1  0  0  0  0
 21 22  1  0  0  0  0
 21 37  1  0  0  0  0
 21 38  1  0  0  0  0
 22 39  1  0  0  0  0
 22 40  1  0  0  0  0
M  END
$$$$
