ZINC000000003946      none
 OpenBabel11202420153D

 21 23  0  0  0  0  0  0  0  0999 V2000
   32.1171   37.6599   60.2192 O   0  0  0  0  0  0  0  0  0  0  0  0
   31.9411   36.5569   60.7052 C   0  0  0  0  0  0  0  0  0  0  0  0
   31.6785   36.2891   62.0026 N   0  0  0  0  0  0  0  0  0  0  0  0
   31.6030   36.9384   62.7192 H   0  0  0  0  0  0  0  0  0  0  0  0
   31.5360   34.8980   62.1232 N   0  0  0  0  0  0  0  0  0  0  0  0
   31.7085   34.3786   60.9600 C   0  0  0  0  0  0  0  0  0  0  0  0
   31.9722   35.3838   60.0471 N   0  0  0  0  0  0  0  0  0  0  0  0
   32.2331   35.1844   58.6832 C   0  0  0  0  0  0  0  0  0  0  0  0
   32.9545   36.1262   57.9662 C   0  0  0  0  0  0  0  0  0  0  0  0
   33.2259   35.9178   56.6270 C   0  0  0  0  0  0  0  0  0  0  0  0
   32.7817   34.7717   55.9929 C   0  0  0  0  0  0  0  0  0  0  0  0
   32.0541   33.8283   56.6952 C   0  0  0  0  0  0  0  0  0  0  0  0
   31.7738   34.0328   58.0353 C   0  0  0  0  0  0  0  0  0  0  0  0
   30.8308   32.8465   58.9442 S   0  0  0  0  0  0  0  0  0  0  0  0
   31.6470   32.9126   60.5760 C   0  0  0  0  0  0  0  0  0  0  0  0
   33.3045   37.0237   58.4543 H   0  0  0  0  0  0  0  0  0  0  0  0
   33.7879   36.6545   56.0722 H   0  0  0  0  0  0  0  0  0  0  0  0
   33.0036   34.6130   54.9480 H   0  0  0  0  0  0  0  0  0  0  0  0
   31.7057   32.9342   56.1996 H   0  0  0  0  0  0  0  0  0  0  0  0
   31.0626   32.3575   61.3097 H   0  0  0  0  0  0  0  0  0  0  0  0
   32.6531   32.4988   60.5085 H   0  0  0  0  0  0  0  0  0  0  0  0
  1  2  2  0  0  0  0
  2  7  1  0  0  0  0
  2  3  1  0  0  0  0
  3  4  1  0  0  0  0
  3  5  1  0  0  0  0
  5  6  2  0  0  0  0
  6 15  1  0  0  0  0
  6  7  1  0  0  0  0
  7  8  1  0  0  0  0
  8 13  2  0  0  0  0
  8  9  1  0  0  0  0
  9 10  2  0  0  0  0
  9 16  1  0  0  0  0
 10 11  1  0  0  0  0
 10 17  1  0  0  0  0
 11 12  2  0  0  0  0
 11 18  1  0  0  0  0
 12 13  1  0  0  0  0
 12 19  1  0  0  0  0
 13 14  1  0  0  0  0
 14 15  1  0  0  0  0
 15 20  1  0  0  0  0
 15 21  1  0  0  0  0
M  END
$$$$
