ZINC000000000296      none
 OpenBabel11202420153D

 31 32  0  0  1  0  0  0  0  0999 V2000
   34.0459   37.0752   65.5981 C   0  0  0  0  0  0  0  0  0  0  0  0
   32.9076   36.9632   64.5820 C   0  0  0  0  0  0  0  0  0  0  0  0
   31.6326   37.5653   65.1761 C   0  0  1  0  0  0  0  0  0  0  0  0
   31.3461   37.0381   66.0860 H   0  0  0  0  0  0  0  0  0  0  0  0
   31.8191   39.0413   65.4521 C   0  0  0  0  0  0  0  0  0  0  0  0
   32.6320   39.5155   66.2162 O   0  0  0  0  0  0  0  0  0  0  0  0
   30.9438   39.7405   64.7191 N   0  0  0  0  0  0  0  0  0  0  0  0
   30.1445   38.9932   63.9478 C   0  0  0  0  0  0  0  0  0  0  0  0
   29.2842   39.4195   63.2076 O   0  0  0  0  0  0  0  0  0  0  0  0
   30.4855   37.5324   64.1457 C   0  0  2  0  0  0  0  0  0  0  0  0
   29.2812   36.7686   64.6998 C   0  0  0  0  0  0  0  0  0  0  0  0
   30.9523   36.9168   62.8518 C   0  0  0  0  0  0  0  0  0  0  0  0
   30.8407   35.5530   62.6554 C   0  0  0  0  0  0  0  0  0  0  0  0
   31.2682   34.9884   61.4682 C   0  0  0  0  0  0  0  0  0  0  0  0
   31.8068   35.7876   60.4772 C   0  0  0  0  0  0  0  0  0  0  0  0
   31.9233   37.1508   60.6757 C   0  0  0  0  0  0  0  0  0  0  0  0
   31.4918   37.7159   61.8611 C   0  0  0  0  0  0  0  0  0  0  0  0
   34.2171   38.1247   65.8376 H   0  0  0  0  0  0  0  0  0  0  0  0
   33.7774   36.5345   66.5056 H   0  0  0  0  0  0  0  0  0  0  0  0
   34.9542   36.6463   65.1748 H   0  0  0  0  0  0  0  0  0  0  0  0
   32.7363   35.9137   64.3424 H   0  0  0  0  0  0  0  0  0  0  0  0
   33.1760   37.5039   63.6744 H   0  0  0  0  0  0  0  0  0  0  0  0
   30.8929   40.7089   64.7448 H   0  0  0  0  0  0  0  0  0  0  0  0
   29.5651   35.7344   64.8944 H   0  0  0  0  0  0  0  0  0  0  0  0
   28.9506   37.2353   65.6277 H   0  0  0  0  0  0  0  0  0  0  0  0
   28.4699   36.7920   63.9723 H   0  0  0  0  0  0  0  0  0  0  0  0
   30.4193   34.9287   63.4293 H   0  0  0  0  0  0  0  0  0  0  0  0
   31.1811   33.9230   61.3147 H   0  0  0  0  0  0  0  0  0  0  0  0
   32.1408   35.3465   59.5496 H   0  0  0  0  0  0  0  0  0  0  0  0
   32.3482   37.7744   59.9032 H   0  0  0  0  0  0  0  0  0  0  0  0
   31.5788   38.7814   62.0145 H   0  0  0  0  0  0  0  0  0  0  0  0
  1  2  1  0  0  0  0
  1 18  1  0  0  0  0
  1 19  1  0  0  0  0
  1 20  1  0  0  0  0
  2  3  1  0  0  0  0
  2 21  1  0  0  0  0
  2 22  1  0  0  0  0
  3  4  1  1  0  0  0
  3 10  1  0  0  0  0
  3  5  1  0  0  0  0
  5  6  2  0  0  0  0
  5  7  1  0  0  0  0
  7  8  1  0  0  0  0
  7 23  1  0  0  0  0
  8  9  2  0  0  0  0
  8 10  1  0  0  0  0
 10 11  1  1  0  0  0
 10 12  1  0  0  0  0
 11 24  1  0  0  0  0
 11 25  1  0  0  0  0
 11 26  1  0  0  0  0
 12 17  2  0  0  0  0
 12 13  1  0  0  0  0
 13 14  2  0  0  0  0
 13 27  1  0  0  0  0
 14 15  1  0  0  0  0
 14 28  1  0  0  0  0
 15 16  2  0  0  0  0
 15 29  1  0  0  0  0
 16 17  1  0  0  0  0
 16 30  1  0  0  0  0
 17 31  1  0  0  0  0
M  END
$$$$
