ZINC000000018263      none
 OpenBabel11202420153D

 17 18  0  0  0  0  0  0  0  0999 V2000
   34.9294   39.5722   53.5804 O   0  0  0  0  0  0  0  0  0  0  0  0
   34.6490   39.3497   54.7446 N   0  0  0  0  0  0  0  0  0  0  0  0
   34.8172   40.2130   55.5873 O   0  0  0  0  0  0  0  0  0  0  0  0
   34.1041   38.0302   55.1355 C   0  0  0  0  0  0  0  0  0  0  0  0
   33.7894   37.7844   56.4527 C   0  0  0  0  0  0  0  0  0  0  0  0
   33.2754   36.5391   56.8226 C   0  0  0  0  0  0  0  0  0  0  0  0
   32.8792   36.0050   58.0072 N   0  0  0  0  0  0  0  0  0  0  0  0
   32.4689   34.7828   57.8210 C   0  0  0  0  0  0  0  0  0  0  0  0
   31.8749   33.7318   59.0685 Cl  0  0  0  0  0  0  0  0  0  0  0  0
   32.5795   34.4482   56.5060 N   0  0  0  0  0  0  0  0  0  0  0  0
   32.3448   33.5953   56.1081 H   0  0  0  0  0  0  0  0  0  0  0  0
   33.0854   35.5500   55.8429 C   0  0  0  0  0  0  0  0  0  0  0  0
   33.4079   35.8147   54.5197 C   0  0  0  0  0  0  0  0  0  0  0  0
   33.9147   37.0500   54.1708 C   0  0  0  0  0  0  0  0  0  0  0  0
   34.3185   37.3800   52.5149 Cl  0  0  0  0  0  0  0  0  0  0  0  0
   33.9390   38.5517   57.1978 H   0  0  0  0  0  0  0  0  0  0  0  0
   33.2625   35.0562   53.7648 H   0  0  0  0  0  0  0  0  0  0  0  0
  1  2  2  0  0  0  0
  2  3  2  0  0  0  0
  2  4  1  0  0  0  0
  4 14  2  0  0  0  0
  4  5  1  0  0  0  0
  5  6  2  0  0  0  0
  5 16  1  0  0  0  0
  6 12  1  0  0  0  0
  6  7  1  0  0  0  0
  7  8  2  0  0  0  0
  8  9  1  0  0  0  0
  8 10  1  0  0  0  0
 10 11  1  0  0  0  0
 10 12  1  0  0  0  0
 12 13  2  0  0  0  0
 13 14  1  0  0  0  0
 13 17  1  0  0  0  0
 14 15  1  0  0  0  0
M  END
$$$$
