ZINC000000034673      none
 OpenBabel11202420153D

 40 41  0  0  0  0  0  0  0  0999 V2000
   34.1390   38.4109   54.9008 C   0  0  0  0  0  0  0  0  0  0  0  0
   33.7425   38.5161   56.3509 C   0  0  0  0  0  0  0  0  0  0  0  0
   33.8613   39.7244   57.0127 C   0  0  0  0  0  0  0  0  0  0  0  0
   33.4993   39.8241   58.3418 C   0  0  0  0  0  0  0  0  0  0  0  0
   33.0149   38.7091   59.0134 C   0  0  0  0  0  0  0  0  0  0  0  0
   32.6472   38.8067   60.3592 N   0  0  0  0  0  0  0  0  0  0  0  0
   31.6729   38.0158   60.8507 C   0  0  0  0  0  0  0  0  0  0  0  0
   31.1135   37.2173   60.1240 O   0  0  0  0  0  0  0  0  0  0  0  0
   31.2849   38.1189   62.2710 C   0  0  0  0  0  0  0  0  0  0  0  0
   30.2768   39.0052   62.6593 C   0  0  0  0  0  0  0  0  0  0  0  0
   29.9180   39.0987   63.9858 C   0  0  0  0  0  0  0  0  0  0  0  0
   30.5571   38.3131   64.9375 C   0  0  0  0  0  0  0  0  0  0  0  0
   30.2009   38.4085   66.2440 O   0  0  0  0  0  0  0  0  0  0  0  0
   29.7390   37.2888   66.8357 C   0  0  0  0  0  0  0  0  0  0  0  0
   28.9089   36.1117   65.9104 S   0  0  0  0  0  0  0  0  0  0  0  0
   29.9307   37.0962   68.1558 N   0  0  0  0  0  0  0  0  0  0  0  0
   29.4287   35.8793   68.7989 C   0  0  0  0  0  0  0  0  0  0  0  0
   30.6411   38.1034   68.9475 C   0  0  0  0  0  0  0  0  0  0  0  0
   31.5640   37.4341   64.5561 C   0  0  0  0  0  0  0  0  0  0  0  0
   31.9249   37.3307   63.2311 C   0  0  0  0  0  0  0  0  0  0  0  0
   32.9017   37.4956   58.3472 C   0  0  0  0  0  0  0  0  0  0  0  0
   33.2601   37.4041   57.0167 C   0  0  0  0  0  0  0  0  0  0  0  0
   35.1920   38.1381   54.8310 H   0  0  0  0  0  0  0  0  0  0  0  0
   33.5328   37.6476   54.4128 H   0  0  0  0  0  0  0  0  0  0  0  0
   33.9790   39.3708   54.4098 H   0  0  0  0  0  0  0  0  0  0  0  0
   34.2380   40.5911   56.4898 H   0  0  0  0  0  0  0  0  0  0  0  0
   33.5930   40.7679   58.8582 H   0  0  0  0  0  0  0  0  0  0  0  0
   33.0935   39.4436   60.9389 H   0  0  0  0  0  0  0  0  0  0  0  0
   29.7795   39.6158   61.9202 H   0  0  0  0  0  0  0  0  0  0  0  0
   29.1392   39.7838   64.2867 H   0  0  0  0  0  0  0  0  0  0  0  0
   30.1951   35.1052   68.7601 H   0  0  0  0  0  0  0  0  0  0  0  0
   29.1810   36.0935   69.8385 H   0  0  0  0  0  0  0  0  0  0  0  0
   28.5366   35.5338   68.2765 H   0  0  0  0  0  0  0  0  0  0  0  0
   30.9362   38.9310   68.3023 H   0  0  0  0  0  0  0  0  0  0  0  0
   29.9862   38.4735   69.7366 H   0  0  0  0  0  0  0  0  0  0  0  0
   31.5293   37.6553   69.3929 H   0  0  0  0  0  0  0  0  0  0  0  0
   32.0611   36.8285   65.2993 H   0  0  0  0  0  0  0  0  0  0  0  0
   32.7048   36.6447   62.9350 H   0  0  0  0  0  0  0  0  0  0  0  0
   32.5300   36.6257   58.8681 H   0  0  0  0  0  0  0  0  0  0  0  0
   33.1685   36.4618   56.4969 H   0  0  0  0  0  0  0  0  0  0  0  0
  1  2  1  0  0  0  0
  1 23  1  0  0  0  0
  1 24  1  0  0  0  0
  1 25  1  0  0  0  0
  2 22  2  0  0  0  0
  2  3  1  0  0  0  0
  3  4  2  0  0  0  0
  3 26  1  0  0  0  0
  4  5  1  0  0  0  0
  4 27  1  0  0  0  0
  5  6  1  0  0  0  0
  5 21  2  0  0  0  0
  6  7  1  0  0  0  0
  6 28  1  0  0  0  0
  7  8  2  0  0  0  0
  7  9  1  0  0  0  0
  9 20  2  0  0  0  0
  9 10  1  0  0  0  0
 10 11  2  0  0  0  0
 10 29  1  0  0  0  0
 11 12  1  0  0  0  0
 11 30  1  0  0  0  0
 12 13  1  0  0  0  0
 12 19  2  0  0  0  0
 13 14  1  0  0  0  0
 14 15  2  0  0  0  0
 14 16  1  0  0  0  0
 16 17  1  0  0  0  0
 16 18  1  0  0  0  0
 17 31  1  0  0  0  0
 17 32  1  0  0  0  0
 17 33  1  0  0  0  0
 18 34  1  0  0  0  0
 18 35  1  0  0  0  0
 18 36  1  0  0  0  0
 19 20  1  0  0  0  0
 19 37  1  0  0  0  0
 20 38  1  0  0  0  0
 21 22  1  0  0  0  0
 21 39  1  0  0  0  0
 22 40  1  0  0  0  0
M  END
$$$$
