ZINC000000003003      none
 OpenBabel11202420153D

 29 31  0  0  0  0  0  0  0  0999 V2000
   29.1794   37.2410   61.2669 O   0  0  0  0  0  0  0  0  0  0  0  0
   30.1837   37.3183   61.9575 C   0  0  0  0  0  0  0  0  0  0  0  0
   30.3184   38.0557   63.1528 C   0  0  0  0  0  0  0  0  0  0  0  0
   29.4896   38.8674   63.9111 C   0  0  0  0  0  0  0  0  0  0  0  0
   29.9910   39.4471   65.0779 C   0  0  0  0  0  0  0  0  0  0  0  0
   31.2659   39.2339   65.4843 C   0  0  0  0  0  0  0  0  0  0  0  0
   32.1260   38.4508   64.7875 N   0  0  0  0  0  0  0  0  0  0  0  0
   33.0322   38.3203   65.1081 H   0  0  0  0  0  0  0  0  0  0  0  0
   31.7073   37.8346   63.6115 C   0  0  0  0  0  0  0  0  0  0  0  0
   32.2791   37.0194   62.7136 C   0  0  0  0  0  0  0  0  0  0  0  0
   31.3643   36.7142   61.7165 N   0  0  0  0  0  0  0  0  0  0  0  0
   31.6409   35.8510   60.5655 C   0  0  0  0  0  0  0  0  0  0  0  0
   32.1624   36.6865   59.4248 C   0  0  0  0  0  0  0  0  0  0  0  0
   32.4893   36.0870   58.2227 C   0  0  0  0  0  0  0  0  0  0  0  0
   32.9722   36.8515   57.1777 C   0  0  0  0  0  0  0  0  0  0  0  0
   33.1180   38.2198   57.3312 C   0  0  0  0  0  0  0  0  0  0  0  0
   33.5843   38.9690   56.3081 F   0  0  0  0  0  0  0  0  0  0  0  0
   32.7853   38.8198   58.5339 C   0  0  0  0  0  0  0  0  0  0  0  0
   32.3080   38.0525   59.5795 C   0  0  0  0  0  0  0  0  0  0  0  0
   28.4704   39.0492   63.6035 H   0  0  0  0  0  0  0  0  0  0  0  0
   29.3475   40.0800   65.6710 H   0  0  0  0  0  0  0  0  0  0  0  0
   31.6088   39.7039   66.3942 H   0  0  0  0  0  0  0  0  0  0  0  0
   33.2959   36.6582   62.7583 H   0  0  0  0  0  0  0  0  0  0  0  0
   30.7230   35.3495   60.2586 H   0  0  0  0  0  0  0  0  0  0  0  0
   32.3872   35.1060   60.8411 H   0  0  0  0  0  0  0  0  0  0  0  0
   32.3709   35.0204   58.1016 H   0  0  0  0  0  0  0  0  0  0  0  0
   33.2315   36.3825   56.2400 H   0  0  0  0  0  0  0  0  0  0  0  0
   32.8982   39.8871   58.6547 H   0  0  0  0  0  0  0  0  0  0  0  0
   32.0484   38.5202   60.5176 H   0  0  0  0  0  0  0  0  0  0  0  0
  1  2  2  0  0  0  0
  2 11  1  0  0  0  0
  2  3  1  0  0  0  0
  3  9  1  0  0  0  0
  3  4  2  0  0  0  0
  4  5  1  0  0  0  0
  4 20  1  0  0  0  0
  5  6  2  0  0  0  0
  5 21  1  0  0  0  0
  6  7  1  0  0  0  0
  6 22  1  0  0  0  0
  7  8  1  0  0  0  0
  7  9  1  0  0  0  0
  9 10  2  0  0  0  0
 10 11  1  0  0  0  0
 10 23  1  0  0  0  0
 11 12  1  0  0  0  0
 12 13  1  0  0  0  0
 12 24  1  0  0  0  0
 12 25  1  0  0  0  0
 13 19  2  0  0  0  0
 13 14  1  0  0  0  0
 14 15  2  0  0  0  0
 14 26  1  0  0  0  0
 15 16  1  0  0  0  0
 15 27  1  0  0  0  0
 16 17  1  0  0  0  0
 16 18  2  0  0  0  0
 18 19  1  0  0  0  0
 18 28  1  0  0  0  0
 19 29  1  0  0  0  0
M  END
$$$$
