ZINC000000003248      none
 OpenBabel11202420153D

 24 24  0  0  0  0  0  0  0  0999 V2000
   32.0818   33.5474   59.1073 C   0  0  0  0  0  0  0  0  0  0  0  0
   32.0766   34.7847   59.9675 C   0  0  0  0  0  0  0  0  0  0  0  0
   31.8255   34.6911   61.2373 N   0  0  0  0  0  0  0  0  0  0  0  0
   31.5596   33.4398   61.8085 N   0  0  0  0  0  0  0  0  0  0  0  0
   30.7476   33.3471   62.8801 C   0  0  0  0  0  0  0  0  0  0  0  0
   30.4916   32.1433   63.4295 N   0  0  0  0  0  0  0  0  0  0  0  0
   30.0411   34.7584   63.5435 S   0  0  0  0  0  0  0  0  0  0  0  0
   32.3566   36.1019   59.3664 C   0  0  0  0  0  0  0  0  0  0  0  0
   32.3473   37.2516   60.1602 C   0  0  0  0  0  0  0  0  0  0  0  0
   32.6103   38.4804   59.5926 C   0  0  0  0  0  0  0  0  0  0  0  0
   32.8831   38.5773   58.2384 C   0  0  0  0  0  0  0  0  0  0  0  0
   33.2126   40.1283   57.5317 Cl  0  0  0  0  0  0  0  0  0  0  0  0
   32.8936   37.4412   57.4447 C   0  0  0  0  0  0  0  0  0  0  0  0
   33.2354   37.5728   55.7478 Cl  0  0  0  0  0  0  0  0  0  0  0  0
   32.6270   36.2058   58.0001 C   0  0  0  0  0  0  0  0  0  0  0  0
   33.0853   33.1220   59.0887 H   0  0  0  0  0  0  0  0  0  0  0  0
   31.3851   32.8165   59.5179 H   0  0  0  0  0  0  0  0  0  0  0  0
   31.7790   33.8084   58.0933 H   0  0  0  0  0  0  0  0  0  0  0  0
   31.9598   32.6402   61.4325 H   0  0  0  0  0  0  0  0  0  0  0  0
   30.8919   31.3437   63.0535 H   0  0  0  0  0  0  0  0  0  0  0  0
   29.9072   32.0765   64.2007 H   0  0  0  0  0  0  0  0  0  0  0  0
   32.1347   37.1779   61.2165 H   0  0  0  0  0  0  0  0  0  0  0  0
   32.6033   39.3696   60.2056 H   0  0  0  0  0  0  0  0  0  0  0  0
   32.6310   35.3215   57.3802 H   0  0  0  0  0  0  0  0  0  0  0  0
  1  2  1  0  0  0  0
  1 16  1  0  0  0  0
  1 17  1  0  0  0  0
  1 18  1  0  0  0  0
  2  3  2  0  0  0  0
  2  8  1  0  0  0  0
  3  4  1  0  0  0  0
  4  5  1  0  0  0  0
  4 19  1  0  0  0  0
  5  6  1  0  0  0  0
  5  7  2  0  0  0  0
  6 20  1  0  0  0  0
  6 21  1  0  0  0  0
  8 15  2  0  0  0  0
  8  9  1  0  0  0  0
  9 10  2  0  0  0  0
  9 22  1  0  0  0  0
 10 11  1  0  0  0  0
 10 23  1  0  0  0  0
 11 12  1  0  0  0  0
 11 13  2  0  0  0  0
 13 14  1  0  0  0  0
 13 15  1  0  0  0  0
 15 24  1  0  0  0  0
M  END
$$$$
