ZINC000000018712      none
 OpenBabel11202420153D

 39 41  0  0  0  0  0  0  0  0999 V2000
   30.5716   40.6545   66.8889 C   0  0  0  0  0  0  0  0  0  0  0  0
   31.1974   39.3699   66.8685 O   0  0  0  0  0  0  0  0  0  0  0  0
   31.3270   38.7657   65.6578 C   0  0  0  0  0  0  0  0  0  0  0  0
   31.9252   37.5166   65.5677 C   0  0  0  0  0  0  0  0  0  0  0  0
   32.0582   36.9007   64.3407 C   0  0  0  0  0  0  0  0  0  0  0  0
   31.5909   37.5344   63.1903 C   0  0  0  0  0  0  0  0  0  0  0  0
   31.7327   36.8754   61.8692 C   0  0  0  0  0  0  0  0  0  0  0  0
   32.4212   37.4134   60.8510 C   0  0  0  0  0  0  0  0  0  0  0  0
   32.3704   36.3536   59.4516 S   0  0  0  0  0  0  0  0  0  0  0  0
   31.3939   35.1718   60.3083 C   0  0  0  0  0  0  0  0  0  0  0  0
   31.1413   35.5929   61.5576 C   0  0  0  0  0  0  0  0  0  0  0  0
   30.3369   34.8132   62.5290 C   0  0  0  0  0  0  0  0  0  0  0  0
   30.7423   33.5337   62.9059 C   0  0  0  0  0  0  0  0  0  0  0  0
   29.9892   32.8126   63.8099 C   0  0  0  0  0  0  0  0  0  0  0  0
   28.8344   33.3571   64.3422 C   0  0  0  0  0  0  0  0  0  0  0  0
   27.8777   32.4303   65.4956 S   0  0  0  0  0  0  0  0  0  0  0  0
   28.5641   32.8762   67.1146 C   0  0  0  0  0  0  0  0  0  0  0  0
   28.1717   31.0750   65.1856 O   0  0  0  0  0  0  0  0  0  0  0  0
   26.5611   32.9454   65.3531 O   0  0  0  0  0  0  0  0  0  0  0  0
   28.4244   34.6242   63.9679 C   0  0  0  0  0  0  0  0  0  0  0  0
   29.1722   35.3567   63.0686 C   0  0  0  0  0  0  0  0  0  0  0  0
   30.9953   38.7912   63.2835 C   0  0  0  0  0  0  0  0  0  0  0  0
   30.8601   39.3992   64.5144 C   0  0  0  0  0  0  0  0  0  0  0  0
   30.5320   41.0231   67.9138 H   0  0  0  0  0  0  0  0  0  0  0  0
   31.1463   41.3483   66.2753 H   0  0  0  0  0  0  0  0  0  0  0  0
   29.5595   40.5718   66.4930 H   0  0  0  0  0  0  0  0  0  0  0  0
   32.2874   37.0263   66.4593 H   0  0  0  0  0  0  0  0  0  0  0  0
   32.5235   35.9287   64.2712 H   0  0  0  0  0  0  0  0  0  0  0  0
   32.9339   38.3634   60.8867 H   0  0  0  0  0  0  0  0  0  0  0  0
   31.0444   34.2399   59.8888 H   0  0  0  0  0  0  0  0  0  0  0  0
   31.6436   33.1075   62.4907 H   0  0  0  0  0  0  0  0  0  0  0  0
   30.3025   31.8214   64.1030 H   0  0  0  0  0  0  0  0  0  0  0  0
   29.6190   32.6042   67.1494 H   0  0  0  0  0  0  0  0  0  0  0  0
   28.0251   32.3421   67.8972 H   0  0  0  0  0  0  0  0  0  0  0  0
   28.4604   33.9501   67.2699 H   0  0  0  0  0  0  0  0  0  0  0  0
   27.5195   35.0425   64.3833 H   0  0  0  0  0  0  0  0  0  0  0  0
   28.8536   36.3475   62.7804 H   0  0  0  0  0  0  0  0  0  0  0  0
   30.6359   39.2865   62.3936 H   0  0  0  0  0  0  0  0  0  0  0  0
   30.3948   40.3709   64.5878 H   0  0  0  0  0  0  0  0  0  0  0  0
  1  2  1  0  0  0  0
  1 24  1  0  0  0  0
  1 25  1  0  0  0  0
  1 26  1  0  0  0  0
  2  3  1  0  0  0  0
  3 23  2  0  0  0  0
  3  4  1  0  0  0  0
  4  5  2  0  0  0  0
  4 27  1  0  0  0  0
  5  6  1  0  0  0  0
  5 28  1  0  0  0  0
  6  7  1  0  0  0  0
  6 22  2  0  0  0  0
  7 11  1  0  0  0  0
  7  8  2  0  0  0  0
  8  9  1  0  0  0  0
  8 29  1  0  0  0  0
  9 10  1  0  0  0  0
 10 11  2  0  0  0  0
 10 30  1  0  0  0  0
 11 12  1  0  0  0  0
 12 21  2  0  0  0  0
 12 13  1  0  0  0  0
 13 14  2  0  0  0  0
 13 31  1  0  0  0  0
 14 15  1  0  0  0  0
 14 32  1  0  0  0  0
 15 16  1  0  0  0  0
 15 20  2  0  0  0  0
 16 17  1  0  0  0  0
 16 18  2  0  0  0  0
 16 19  2  0  0  0  0
 17 33  1  0  0  0  0
 17 34  1  0  0  0  0
 17 35  1  0  0  0  0
 20 21  1  0  0  0  0
 20 36  1  0  0  0  0
 21 37  1  0  0  0  0
 22 23  1  0  0  0  0
 22 38  1  0  0  0  0
 23 39  1  0  0  0  0
M  END
$$$$
