ZINC000000004841      none
 OpenBabel11202420153D

 23 24  0  0  0  0  0  0  0  0999 V2000
   32.4302   38.7461   60.1980 N   0  0  0  0  0  0  0  0  0  0  0  0
   32.8329   38.4390   58.8931 C   0  0  0  0  0  0  0  0  0  0  0  0
   33.2785   39.4476   58.0485 C   0  0  0  0  0  0  0  0  0  0  0  0
   33.6753   39.1451   56.7612 C   0  0  0  0  0  0  0  0  0  0  0  0
   33.6292   37.8316   56.3108 C   0  0  0  0  0  0  0  0  0  0  0  0
   34.1355   37.4451   54.6679 S   0  0  0  0  0  0  0  0  0  0  0  0
   33.8987   35.7014   54.5799 C   0  0  0  0  0  0  0  0  0  0  0  0
   32.7782   35.0803   54.1914 C   0  0  0  0  0  0  0  0  0  0  0  0
   32.8243   33.7584   54.2026 N   0  0  0  0  0  0  0  0  0  0  0  0
   33.9368   33.2113   54.5841 C   0  0  0  0  0  0  0  0  0  0  0  0
   34.1761   31.8453   54.6617 N   0  0  0  0  0  0  0  0  0  0  0  0
   35.0934   34.4743   54.9956 S   0  0  0  0  0  0  0  0  0  0  0  0
   33.1782   36.8236   57.1541 C   0  0  0  0  0  0  0  0  0  0  0  0
   32.7861   37.1260   58.4428 C   0  0  0  0  0  0  0  0  0  0  0  0
   32.4625   39.6631   60.5125 H   0  0  0  0  0  0  0  0  0  0  0  0
   32.1189   38.0419   60.7879 H   0  0  0  0  0  0  0  0  0  0  0  0
   33.3144   40.4686   58.3988 H   0  0  0  0  0  0  0  0  0  0  0  0
   34.0212   39.9296   56.1044 H   0  0  0  0  0  0  0  0  0  0  0  0
   31.8948   35.6228   53.8884 H   0  0  0  0  0  0  0  0  0  0  0  0
   33.4790   31.2161   54.4187 H   0  0  0  0  0  0  0  0  0  0  0  0
   35.0418   31.5203   54.9551 H   0  0  0  0  0  0  0  0  0  0  0  0
   33.1377   35.8032   56.8027 H   0  0  0  0  0  0  0  0  0  0  0  0
   32.4392   36.3421   59.0997 H   0  0  0  0  0  0  0  0  0  0  0  0
  1  2  1  0  0  0  0
  1 15  1  0  0  0  0
  1 16  1  0  0  0  0
  2 14  2  0  0  0  0
  2  3  1  0  0  0  0
  3  4  2  0  0  0  0
  3 17  1  0  0  0  0
  4  5  1  0  0  0  0
  4 18  1  0  0  0  0
  5  6  1  0  0  0  0
  5 13  2  0  0  0  0
  6  7  1  0  0  0  0
  7 12  1  0  0  0  0
  7  8  2  0  0  0  0
  8  9  1  0  0  0  0
  8 19  1  0  0  0  0
  9 10  2  0  0  0  0
 10 11  1  0  0  0  0
 10 12  1  0  0  0  0
 11 20  1  0  0  0  0
 11 21  1  0  0  0  0
 13 14  1  0  0  0  0
 13 22  1  0  0  0  0
 14 23  1  0  0  0  0
M  END
$$$$
