ZINC000000048928      none
 OpenBabel11202420153D

 33 36  0  0  0  0  0  0  0  0999 V2000
   31.3493   38.6133   59.9512 O   0  0  0  0  0  0  0  0  0  0  0  0
   31.7501   37.7371   59.2119 C   0  0  0  0  0  0  0  0  0  0  0  0
   32.5355   37.9428   57.9766 C   0  0  0  0  0  0  0  0  0  0  0  0
   33.0253   39.0578   57.3156 C   0  0  0  0  0  0  0  0  0  0  0  0
   33.7415   38.8999   56.1395 C   0  0  0  0  0  0  0  0  0  0  0  0
   33.9709   37.6384   55.6227 C   0  0  0  0  0  0  0  0  0  0  0  0
   33.4875   36.5140   56.2731 C   0  0  0  0  0  0  0  0  0  0  0  0
   32.7694   36.6565   57.4496 C   0  0  0  0  0  0  0  0  0  0  0  0
   32.1225   35.7125   58.3851 C   0  0  0  0  0  0  0  0  0  0  0  0
   32.1054   34.5033   58.2731 O   0  0  0  0  0  0  0  0  0  0  0  0
   31.5562   36.4168   59.3816 N   0  0  0  0  0  0  0  0  0  0  0  0
   30.8198   35.8243   60.5009 C   0  0  0  0  0  0  0  0  0  0  0  0
   30.9600   36.7041   61.7163 C   0  0  0  0  0  0  0  0  0  0  0  0
   31.9528   36.4828   62.5195 N   0  0  0  0  0  0  0  0  0  0  0  0
   32.1442   37.2340   63.6352 C   0  0  0  0  0  0  0  0  0  0  0  0
   33.2099   37.0021   64.5048 C   0  0  0  0  0  0  0  0  0  0  0  0
   33.3608   37.7912   65.6238 C   0  0  0  0  0  0  0  0  0  0  0  0
   32.4648   38.8160   65.8977 C   0  0  0  0  0  0  0  0  0  0  0  0
   31.4042   39.0641   65.0532 C   0  0  0  0  0  0  0  0  0  0  0  0
   31.2344   38.2774   63.9168 C   0  0  0  0  0  0  0  0  0  0  0  0
   30.1235   38.4906   62.9768 C   0  0  0  0  0  0  0  0  0  0  0  0
   29.3027   39.3699   63.1564 O   0  0  0  0  0  0  0  0  0  0  0  0
   30.0514   37.6699   61.9053 O   0  0  0  0  0  0  0  0  0  0  0  0
   32.8491   40.0457   57.7148 H   0  0  0  0  0  0  0  0  0  0  0  0
   34.1234   39.7683   55.6233 H   0  0  0  0  0  0  0  0  0  0  0  0
   34.5310   37.5283   54.7058 H   0  0  0  0  0  0  0  0  0  0  0  0
   33.6694   35.5309   55.8646 H   0  0  0  0  0  0  0  0  0  0  0  0
   31.2241   34.8359   60.7192 H   0  0  0  0  0  0  0  0  0  0  0  0
   29.7662   35.7356   60.2363 H   0  0  0  0  0  0  0  0  0  0  0  0
   33.9133   36.2081   64.3016 H   0  0  0  0  0  0  0  0  0  0  0  0
   34.1889   37.6137   66.2939 H   0  0  0  0  0  0  0  0  0  0  0  0
   32.6004   39.4239   66.7800 H   0  0  0  0  0  0  0  0  0  0  0  0
   30.7104   39.8627   65.2709 H   0  0  0  0  0  0  0  0  0  0  0  0
  1  2  2  0  0  0  0
  2 11  1  0  0  0  0
  2  3  1  0  0  0  0
  3  8  2  0  0  0  0
  3  4  1  0  0  0  0
  4  5  2  0  0  0  0
  4 24  1  0  0  0  0
  5  6  1  0  0  0  0
  5 25  1  0  0  0  0
  6  7  2  0  0  0  0
  6 26  1  0  0  0  0
  7  8  1  0  0  0  0
  7 27  1  0  0  0  0
  8  9  1  0  0  0  0
  9 10  2  0  0  0  0
  9 11  1  0  0  0  0
 11 12  1  0  0  0  0
 12 13  1  0  0  0  0
 12 28  1  0  0  0  0
 12 29  1  0  0  0  0
 13 23  1  0  0  0  0
 13 14  2  0  0  0  0
 14 15  1  0  0  0  0
 15 20  2  0  0  0  0
 15 16  1  0  0  0  0
 16 17  2  0  0  0  0
 16 30  1  0  0  0  0
 17 18  1  0  0  0  0
 17 31  1  0  0  0  0
 18 19  2  0  0  0  0
 18 32  1  0  0  0  0
 19 20  1  0  0  0  0
 19 33  1  0  0  0  0
 20 21  1  0  0  0  0
 21 22  2  0  0  0  0
 21 23  1  0  0  0  0
M  END
$$$$
