ZINC000000031273      none
 OpenBabel11202420163D

 39 41  0  0  0  0  0  0  0  0999 V2000
   33.1014   35.0835   55.2913 C   0  0  0  0  0  0  0  0  0  0  0  0
   32.6894   35.2982   56.6427 O   0  0  0  0  0  0  0  0  0  0  0  0
   32.7894   36.5658   57.1246 C   0  0  0  0  0  0  0  0  0  0  0  0
   33.2803   37.5787   56.3136 C   0  0  0  0  0  0  0  0  0  0  0  0
   33.3838   38.8685   56.8004 C   0  0  0  0  0  0  0  0  0  0  0  0
   32.9975   39.1530   58.0998 C   0  0  0  0  0  0  0  0  0  0  0  0
   33.1003   40.4226   58.5780 O   0  0  0  0  0  0  0  0  0  0  0  0
   34.3306   40.7798   59.2109 C   0  0  0  0  0  0  0  0  0  0  0  0
   32.5044   38.1381   58.9166 C   0  0  0  0  0  0  0  0  0  0  0  0
   32.1132   38.4228   60.2303 N   0  0  0  0  0  0  0  0  0  0  0  0
   32.2164   37.4763   61.1842 C   0  0  0  0  0  0  0  0  0  0  0  0
   32.6494   36.3747   60.9038 O   0  0  0  0  0  0  0  0  0  0  0  0
   31.8047   37.7757   62.5662 C   0  0  0  0  0  0  0  0  0  0  0  0
   32.4259   37.1342   63.5843 C   0  0  0  0  0  0  0  0  0  0  0  0
   32.0290   37.4285   64.9632 C   0  0  0  0  0  0  0  0  0  0  0  0
   32.6324   36.8078   66.0559 C   0  0  0  0  0  0  0  0  0  0  0  0
   32.2168   37.1253   67.3320 C   0  0  0  0  0  0  0  0  0  0  0  0
   31.2069   38.0547   67.5376 C   0  0  0  0  0  0  0  0  0  0  0  0
   30.5963   38.6807   66.4701 C   0  0  0  0  0  0  0  0  0  0  0  0
   30.9995   38.3755   65.1738 C   0  0  0  0  0  0  0  0  0  0  0  0
   30.3877   39.0091   63.9964 C   0  0  0  0  0  0  0  0  0  0  0  0
   29.4990   39.8283   64.1317 O   0  0  0  0  0  0  0  0  0  0  0  0
   30.8204   38.6733   62.7689 O   0  0  0  0  0  0  0  0  0  0  0  0
   32.4068   36.8434   58.4276 C   0  0  0  0  0  0  0  0  0  0  0  0
   34.1515   35.3556   55.1840 H   0  0  0  0  0  0  0  0  0  0  0  0
   32.9704   34.0324   55.0341 H   0  0  0  0  0  0  0  0  0  0  0  0
   32.4967   35.6987   54.6250 H   0  0  0  0  0  0  0  0  0  0  0  0
   33.5824   37.3592   55.3003 H   0  0  0  0  0  0  0  0  0  0  0  0
   33.7666   39.6549   56.1669 H   0  0  0  0  0  0  0  0  0  0  0  0
   34.5002   40.1292   60.0688 H   0  0  0  0  0  0  0  0  0  0  0  0
   35.1504   40.6669   58.5015 H   0  0  0  0  0  0  0  0  0  0  0  0
   34.2796   41.8161   59.5453 H   0  0  0  0  0  0  0  0  0  0  0  0
   31.7679   39.3012   60.4539 H   0  0  0  0  0  0  0  0  0  0  0  0
   33.2079   36.4172   63.3820 H   0  0  0  0  0  0  0  0  0  0  0  0
   33.4192   36.0835   65.9044 H   0  0  0  0  0  0  0  0  0  0  0  0
   32.6822   36.6457   68.1803 H   0  0  0  0  0  0  0  0  0  0  0  0
   30.8953   38.2905   68.5444 H   0  0  0  0  0  0  0  0  0  0  0  0
   29.8113   39.4027   66.6397 H   0  0  0  0  0  0  0  0  0  0  0  0
   32.0293   36.0536   59.0601 H   0  0  0  0  0  0  0  0  0  0  0  0
  1  2  1  0  0  0  0
  1 25  1  0  0  0  0
  1 26  1  0  0  0  0
  1 27  1  0  0  0  0
  2  3  1  0  0  0  0
  3 24  2  0  0  0  0
  3  4  1  0  0  0  0
  4  5  2  0  0  0  0
  4 28  1  0  0  0  0
  5  6  1  0  0  0  0
  5 29  1  0  0  0  0
  6  7  1  0  0  0  0
  6  9  2  0  0  0  0
  7  8  1  0  0  0  0
  8 30  1  0  0  0  0
  8 31  1  0  0  0  0
  8 32  1  0  0  0  0
  9 10  1  0  0  0  0
  9 24  1  0  0  0  0
 10 11  1  0  0  0  0
 10 33  1  0  0  0  0
 11 12  2  0  0  0  0
 11 13  1  0  0  0  0
 13 23  1  0  0  0  0
 13 14  2  0  0  0  0
 14 15  1  0  0  0  0
 14 34  1  0  0  0  0
 15 20  2  0  0  0  0
 15 16  1  0  0  0  0
 16 17  2  0  0  0  0
 16 35  1  0  0  0  0
 17 18  1  0  0  0  0
 17 36  1  0  0  0  0
 18 19  2  0  0  0  0
 18 37  1  0  0  0  0
 19 20  1  0  0  0  0
 19 38  1  0  0  0  0
 20 21  1  0  0  0  0
 21 22  2  0  0  0  0
 21 23  1  0  0  0  0
 24 39  1  0  0  0  0
M  END
$$$$
