ZINC000000042714      none
 OpenBabel11202420153D

 36 39  0  0  0  0  0  0  0  0999 V2000
   29.8212   37.2172   61.2387 C   0  0  0  0  0  0  0  0  0  0  0  0
   31.1331   36.5681   61.1138 N   0  0  0  0  0  0  0  0  0  0  0  0
   31.1421   35.3209   61.7628 C   0  0  0  0  0  0  0  0  0  0  0  0
   30.6246   34.9282   62.9888 C   0  0  0  0  0  0  0  0  0  0  0  0
   30.7601   33.6187   63.4105 C   0  0  0  0  0  0  0  0  0  0  0  0
   31.4158   32.6970   62.6155 C   0  0  0  0  0  0  0  0  0  0  0  0
   31.9396   33.0802   61.3950 C   0  0  0  0  0  0  0  0  0  0  0  0
   31.8081   34.3920   60.9629 C   0  0  0  0  0  0  0  0  0  0  0  0
   32.2432   35.0243   59.7849 N   0  0  0  0  0  0  0  0  0  0  0  0
   32.0016   34.1743   58.6114 C   0  0  0  0  0  0  0  0  0  0  0  0
   31.4468   36.2736   59.6968 C   0  0  0  0  0  0  0  0  0  0  0  0
   32.2714   37.3811   59.0930 C   0  0  0  0  0  0  0  0  0  0  0  0
   32.6251   38.4751   59.8608 C   0  0  0  0  0  0  0  0  0  0  0  0
   33.3818   39.4932   59.3116 C   0  0  0  0  0  0  0  0  0  0  0  0
   33.7874   39.4197   57.9888 C   0  0  0  0  0  0  0  0  0  0  0  0
   33.4311   38.3177   57.2153 C   0  0  0  0  0  0  0  0  0  0  0  0
   32.6774   37.2983   57.7742 C   0  0  0  0  0  0  0  0  0  0  0  0
   33.9457   38.4800   55.9616 O   0  0  0  0  0  0  0  0  0  0  0  0
   34.2718   39.8787   55.8580 C   0  0  0  0  0  0  0  0  0  0  0  0
   34.5252   40.2724   57.2196 O   0  0  0  0  0  0  0  0  0  0  0  0
   29.5895   37.3681   62.2930 H   0  0  0  0  0  0  0  0  0  0  0  0
   29.8428   38.1809   60.7299 H   0  0  0  0  0  0  0  0  0  0  0  0
   29.0580   36.5842   60.7859 H   0  0  0  0  0  0  0  0  0  0  0  0
   30.1114   35.6451   63.6124 H   0  0  0  0  0  0  0  0  0  0  0  0
   30.3531   33.3149   64.3636 H   0  0  0  0  0  0  0  0  0  0  0  0
   31.5194   31.6751   62.9490 H   0  0  0  0  0  0  0  0  0  0  0  0
   32.4515   32.3575   60.7769 H   0  0  0  0  0  0  0  0  0  0  0  0
   30.9348   33.9677   58.5258 H   0  0  0  0  0  0  0  0  0  0  0  0
   32.3453   34.6882   57.7136 H   0  0  0  0  0  0  0  0  0  0  0  0
   32.5455   33.2363   58.7239 H   0  0  0  0  0  0  0  0  0  0  0  0
   30.5325   36.1170   59.1246 H   0  0  0  0  0  0  0  0  0  0  0  0
   32.3098   38.5341   60.8921 H   0  0  0  0  0  0  0  0  0  0  0  0
   33.6566   40.3467   59.9137 H   0  0  0  0  0  0  0  0  0  0  0  0
   32.4034   36.4404   57.1780 H   0  0  0  0  0  0  0  0  0  0  0  0
   33.4316   40.4386   55.4473 H   0  0  0  0  0  0  0  0  0  0  0  0
   35.1622   40.0223   55.2458 H   0  0  0  0  0  0  0  0  0  0  0  0
  1  2  1  0  0  0  0
  1 21  1  0  0  0  0
  1 22  1  0  0  0  0
  1 23  1  0  0  0  0
  2 11  1  0  0  0  0
  2  3  1  0  0  0  0
  3  8  2  0  0  0  0
  3  4  1  0  0  0  0
  4  5  2  0  0  0  0
  4 24  1  0  0  0  0
  5  6  1  0  0  0  0
  5 25  1  0  0  0  0
  6  7  2  0  0  0  0
  6 26  1  0  0  0  0
  7  8  1  0  0  0  0
  7 27  1  0  0  0  0
  8  9  1  0  0  0  0
  9 10  1  0  0  0  0
  9 11  1  0  0  0  0
 10 28  1  0  0  0  0
 10 29  1  0  0  0  0
 10 30  1  0  0  0  0
 11 12  1  0  0  0  0
 11 31  1  0  0  0  0
 12 17  2  0  0  0  0
 12 13  1  0  0  0  0
 13 14  2  0  0  0  0
 13 32  1  0  0  0  0
 14 15  1  0  0  0  0
 14 33  1  0  0  0  0
 15 20  1  0  0  0  0
 15 16  2  0  0  0  0
 16 17  1  0  0  0  0
 16 18  1  0  0  0  0
 17 34  1  0  0  0  0
 18 19  1  0  0  0  0
 19 20  1  0  0  0  0
 19 35  1  0  0  0  0
 19 36  1  0  0  0  0
M  END
$$$$
