ZINC000000029866      none
 OpenBabel11202420163D

 37 38  0  0  0  0  0  0  0  0999 V2000
   31.3384   42.0382   67.6912 C   0  0  0  0  0  0  0  0  0  0  0  0
   30.9930   40.6985   67.0939 C   0  0  0  0  0  0  0  0  0  0  0  0
   29.9621   40.1419   67.4080 O   0  0  0  0  0  0  0  0  0  0  0  0
   31.8298   40.1185   66.2107 N   0  0  0  0  0  0  0  0  0  0  0  0
   31.5091   38.8746   65.6561 C   0  0  0  0  0  0  0  0  0  0  0  0
   31.9224   37.7059   66.2839 C   0  0  0  0  0  0  0  0  0  0  0  0
   31.6062   36.4773   65.7373 C   0  0  0  0  0  0  0  0  0  0  0  0
   30.8746   36.4060   64.5673 C   0  0  0  0  0  0  0  0  0  0  0  0
   30.4628   37.5708   63.9316 C   0  0  0  0  0  0  0  0  0  0  0  0
   29.7270   37.4981   62.7468 N   0  0  0  0  0  0  0  0  0  0  0  0
   30.3726   36.7540   61.4155 S   0  0  0  0  0  0  0  0  0  0  0  0
   29.4013   36.9525   60.3975 O   0  0  0  0  0  0  0  0  0  0  0  0
   30.7019   35.4483   61.8692 O   0  0  0  0  0  0  0  0  0  0  0  0
   31.8771   37.7004   61.0531 C   0  0  0  0  0  0  0  0  0  0  0  0
   32.2903   37.4589   59.6241 C   0  0  0  0  0  0  0  0  0  0  0  0
   32.6700   38.5213   58.8255 C   0  0  0  0  0  0  0  0  0  0  0  0
   33.0496   38.2998   57.5148 C   0  0  0  0  0  0  0  0  0  0  0  0
   33.0476   37.0160   57.0023 C   0  0  0  0  0  0  0  0  0  0  0  0
   32.6687   35.9534   57.8012 C   0  0  0  0  0  0  0  0  0  0  0  0
   32.2901   36.1749   59.1121 C   0  0  0  0  0  0  0  0  0  0  0  0
   30.7786   38.8067   64.4787 C   0  0  0  0  0  0  0  0  0  0  0  0
   32.2943   42.3781   67.2926 H   0  0  0  0  0  0  0  0  0  0  0  0
   30.5618   42.7599   67.4380 H   0  0  0  0  0  0  0  0  0  0  0  0
   31.4088   41.9455   68.7750 H   0  0  0  0  0  0  0  0  0  0  0  0
   32.6541   40.5635   65.9594 H   0  0  0  0  0  0  0  0  0  0  0  0
   32.4911   37.7581   67.2005 H   0  0  0  0  0  0  0  0  0  0  0  0
   31.9280   35.5704   66.2276 H   0  0  0  0  0  0  0  0  0  0  0  0
   30.6259   35.4438   64.1444 H   0  0  0  0  0  0  0  0  0  0  0  0
   28.8380   37.8835   62.7035 H   0  0  0  0  0  0  0  0  0  0  0  0
   32.6769   37.3813   61.7214 H   0  0  0  0  0  0  0  0  0  0  0  0
   31.6824   38.7626   61.2005 H   0  0  0  0  0  0  0  0  0  0  0  0
   32.6659   39.5251   59.2242 H   0  0  0  0  0  0  0  0  0  0  0  0
   33.3459   39.1299   56.8908 H   0  0  0  0  0  0  0  0  0  0  0  0
   33.3435   36.8430   55.9781 H   0  0  0  0  0  0  0  0  0  0  0  0
   32.6683   34.9503   57.4011 H   0  0  0  0  0  0  0  0  0  0  0  0
   31.9938   35.3447   59.7362 H   0  0  0  0  0  0  0  0  0  0  0  0
   30.4565   39.7137   63.9888 H   0  0  0  0  0  0  0  0  0  0  0  0
  1  2  1  0  0  0  0
  1 22  1  0  0  0  0
  1 23  1  0  0  0  0
  1 24  1  0  0  0  0
  2  3  2  0  0  0  0
  2  4  1  0  0  0  0
  4  5  1  0  0  0  0
  4 25  1  0  0  0  0
  5 21  2  0  0  0  0
  5  6  1  0  0  0  0
  6  7  2  0  0  0  0
  6 26  1  0  0  0  0
  7  8  1  0  0  0  0
  7 27  1  0  0  0  0
  8  9  2  0  0  0  0
  8 28  1  0  0  0  0
  9 10  1  0  0  0  0
  9 21  1  0  0  0  0
 10 11  1  0  0  0  0
 10 29  1  0  0  0  0
 11 12  2  0  0  0  0
 11 13  2  0  0  0  0
 11 14  1  0  0  0  0
 14 15  1  0  0  0  0
 14 30  1  0  0  0  0
 14 31  1  0  0  0  0
 15 20  2  0  0  0  0
 15 16  1  0  0  0  0
 16 17  2  0  0  0  0
 16 32  1  0  0  0  0
 17 18  1  0  0  0  0
 17 33  1  0  0  0  0
 18 19  2  0  0  0  0
 18 34  1  0  0  0  0
 19 20  1  0  0  0  0
 19 35  1  0  0  0  0
 20 36  1  0  0  0  0
 21 37  1  0  0  0  0
M  END
$$$$
