ZINC000000050245      none
 OpenBabel11202420153D

 40 42  0  0  0  0  0  0  0  0999 V2000
   28.7685   37.1054   62.2811 O   0  0  0  0  0  0  0  0  0  0  0  0
   29.9628   36.9800   62.4489 C   0  0  0  0  0  0  0  0  0  0  0  0
   30.7605   36.0788   61.5419 C   0  0  0  0  0  0  0  0  0  0  0  0
   31.7845   36.8557   60.8664 O   0  0  0  0  0  0  0  0  0  0  0  0
   32.1582   36.4404   59.6407 C   0  0  0  0  0  0  0  0  0  0  0  0
   32.1065   35.2603   59.3572 O   0  0  0  0  0  0  0  0  0  0  0  0
   32.6311   37.4201   58.6410 C   0  0  0  0  0  0  0  0  0  0  0  0
   32.6861   38.7782   58.9623 C   0  0  0  0  0  0  0  0  0  0  0  0
   33.1330   39.6899   58.0284 C   0  0  0  0  0  0  0  0  0  0  0  0
   33.5171   39.2655   56.7697 C   0  0  0  0  0  0  0  0  0  0  0  0
   33.4607   37.9177   56.4385 C   0  0  0  0  0  0  0  0  0  0  0  0
   33.8515   37.4930   55.1604 N   0  0  0  0  0  0  0  0  0  0  0  0
   33.3270   36.4157   54.5631 C   0  0  0  0  0  0  0  0  0  0  0  0
   32.4756   35.6946   55.0372 O   0  0  0  0  0  0  0  0  0  0  0  0
   33.9631   36.2427   53.2010 C   0  0  0  0  0  0  0  0  0  0  0  0
   34.9635   37.4135   53.1180 C   0  0  0  0  0  0  0  0  0  0  0  0
   34.7838   38.1281   54.4395 C   0  0  0  0  0  0  0  0  0  0  0  0
   35.3883   39.1188   54.7901 O   0  0  0  0  0  0  0  0  0  0  0  0
   33.0187   36.9926   57.3708 C   0  0  0  0  0  0  0  0  0  0  0  0
   30.6333   37.7079   63.5379 C   0  0  0  0  0  0  0  0  0  0  0  0
   31.7645   37.1640   64.1550 C   0  0  0  0  0  0  0  0  0  0  0  0
   32.3906   37.8550   65.1707 C   0  0  0  0  0  0  0  0  0  0  0  0
   31.8956   39.0784   65.5879 C   0  0  0  0  0  0  0  0  0  0  0  0
   30.7731   39.6205   64.9864 C   0  0  0  0  0  0  0  0  0  0  0  0
   30.1393   38.9446   63.9653 C   0  0  0  0  0  0  0  0  0  0  0  0
   31.2312   35.2931   62.1328 H   0  0  0  0  0  0  0  0  0  0  0  0
   30.0981   35.6294   60.8020 H   0  0  0  0  0  0  0  0  0  0  0  0
   32.3830   39.1139   59.9431 H   0  0  0  0  0  0  0  0  0  0  0  0
   33.1792   40.7393   58.2798 H   0  0  0  0  0  0  0  0  0  0  0  0
   33.8618   39.9846   56.0414 H   0  0  0  0  0  0  0  0  0  0  0  0
   33.2151   36.3206   52.4120 H   0  0  0  0  0  0  0  0  0  0  0  0
   34.4844   35.2875   53.1408 H   0  0  0  0  0  0  0  0  0  0  0  0
   34.7135   38.0738   52.2875 H   0  0  0  0  0  0  0  0  0  0  0  0
   35.9837   37.0429   53.0180 H   0  0  0  0  0  0  0  0  0  0  0  0
   32.9743   35.9443   57.1149 H   0  0  0  0  0  0  0  0  0  0  0  0
   32.1491   36.2074   63.8336 H   0  0  0  0  0  0  0  0  0  0  0  0
   33.2672   37.4388   65.6446 H   0  0  0  0  0  0  0  0  0  0  0  0
   32.3878   39.6127   66.3871 H   0  0  0  0  0  0  0  0  0  0  0  0
   30.3929   40.5757   65.3175 H   0  0  0  0  0  0  0  0  0  0  0  0
   29.2634   39.3689   63.4970 H   0  0  0  0  0  0  0  0  0  0  0  0
  1  2  2  0  0  0  0
  2  3  1  0  0  0  0
  2 20  1  0  0  0  0
  3  4  1  0  0  0  0
  3 26  1  0  0  0  0
  3 27  1  0  0  0  0
  4  5  1  0  0  0  0
  5  6  2  0  0  0  0
  5  7  1  0  0  0  0
  7 19  2  0  0  0  0
  7  8  1  0  0  0  0
  8  9  2  0  0  0  0
  8 28  1  0  0  0  0
  9 10  1  0  0  0  0
  9 29  1  0  0  0  0
 10 11  2  0  0  0  0
 10 30  1  0  0  0  0
 11 12  1  0  0  0  0
 11 19  1  0  0  0  0
 12 17  1  0  0  0  0
 12 13  1  0  0  0  0
 13 14  2  0  0  0  0
 13 15  1  0  0  0  0
 15 16  1  0  0  0  0
 15 31  1  0  0  0  0
 15 32  1  0  0  0  0
 16 17  1  0  0  0  0
 16 33  1  0  0  0  0
 16 34  1  0  0  0  0
 17 18  2  0  0  0  0
 19 35  1  0  0  0  0
 20 25  2  0  0  0  0
 20 21  1  0  0  0  0
 21 22  2  0  0  0  0
 21 36  1  0  0  0  0
 22 23  1  0  0  0  0
 22 37  1  0  0  0  0
 23 24  2  0  0  0  0
 23 38  1  0  0  0  0
 24 25  1  0  0  0  0
 24 39  1  0  0  0  0
 25 40  1  0  0  0  0
M  END
$$$$
