ZINC000000044659      none
 OpenBabel11202420153D

 41 43  0  0  0  0  0  0  0  0999 V2000
   28.8575   39.2736   65.2502 C   0  0  0  0  0  0  0  0  0  0  0  0
   30.3008   39.7815   65.2406 C   0  0  0  0  0  0  0  0  0  0  0  0
   30.8105   39.7428   63.9062 O   0  0  0  0  0  0  0  0  0  0  0  0
   30.8462   38.5316   63.2951 C   0  0  0  0  0  0  0  0  0  0  0  0
   30.7067   38.4496   61.9118 C   0  0  0  0  0  0  0  0  0  0  0  0
   30.7463   37.2390   61.2840 C   0  0  0  0  0  0  0  0  0  0  0  0
   30.9169   36.0646   62.0331 C   0  0  0  0  0  0  0  0  0  0  0  0
   30.9533   34.7656   61.3649 C   0  0  0  0  0  0  0  0  0  0  0  0
   31.4331   34.6665   60.0729 C   0  0  0  0  0  0  0  0  0  0  0  0
   32.0282   35.6481   59.3352 N   0  0  0  0  0  0  0  0  0  0  0  0
   32.3437   35.1691   58.1640 C   0  0  0  0  0  0  0  0  0  0  0  0
   33.0065   35.9478   57.0987 C   0  0  0  0  0  0  0  0  0  0  0  0
   33.3111   35.3459   55.8758 C   0  0  0  0  0  0  0  0  0  0  0  0
   33.9251   36.0808   54.8831 C   0  0  0  0  0  0  0  0  0  0  0  0
   34.2497   37.4082   55.1008 C   0  0  0  0  0  0  0  0  0  0  0  0
   33.9560   38.0094   56.3121 C   0  0  0  0  0  0  0  0  0  0  0  0
   33.3371   37.2879   57.3116 C   0  0  0  0  0  0  0  0  0  0  0  0
   31.9898   33.8745   58.0482 O   0  0  0  0  0  0  0  0  0  0  0  0
   31.4160   33.4780   59.2046 C   0  0  0  0  0  0  0  0  0  0  0  0
   30.9766   32.3747   59.4710 O   0  0  0  0  0  0  0  0  0  0  0  0
   31.0523   36.1449   63.4328 C   0  0  0  0  0  0  0  0  0  0  0  0
   31.2172   35.0170   64.1684 O   0  0  0  0  0  0  0  0  0  0  0  0
   30.0333   34.3766   64.6481 C   0  0  0  0  0  0  0  0  0  0  0  0
   31.0157   37.3810   64.0528 C   0  0  0  0  0  0  0  0  0  0  0  0
   28.4688   39.3031   66.2680 H   0  0  0  0  0  0  0  0  0  0  0  0
   28.2451   39.9075   64.6088 H   0  0  0  0  0  0  0  0  0  0  0  0
   28.8306   38.2487   64.8805 H   0  0  0  0  0  0  0  0  0  0  0  0
   30.9131   39.1476   65.8820 H   0  0  0  0  0  0  0  0  0  0  0  0
   30.3278   40.8064   65.6103 H   0  0  0  0  0  0  0  0  0  0  0  0
   30.5709   39.3506   61.3319 H   0  0  0  0  0  0  0  0  0  0  0  0
   30.6420   37.1839   60.2104 H   0  0  0  0  0  0  0  0  0  0  0  0
   30.6051   33.8830   61.8807 H   0  0  0  0  0  0  0  0  0  0  0  0
   33.0626   34.3086   55.7064 H   0  0  0  0  0  0  0  0  0  0  0  0
   34.1572   35.6179   53.9353 H   0  0  0  0  0  0  0  0  0  0  0  0
   34.7349   37.9777   54.3219 H   0  0  0  0  0  0  0  0  0  0  0  0
   34.2125   39.0457   56.4754 H   0  0  0  0  0  0  0  0  0  0  0  0
   33.1080   37.7584   58.2563 H   0  0  0  0  0  0  0  0  0  0  0  0
   29.4812   35.0654   65.2875 H   0  0  0  0  0  0  0  0  0  0  0  0
   29.4092   34.0864   63.8028 H   0  0  0  0  0  0  0  0  0  0  0  0
   30.3062   33.4896   65.2198 H   0  0  0  0  0  0  0  0  0  0  0  0
   31.1184   37.4508   65.1256 H   0  0  0  0  0  0  0  0  0  0  0  0
  1  2  1  0  0  0  0
  1 25  1  0  0  0  0
  1 26  1  0  0  0  0
  1 27  1  0  0  0  0
  2  3  1  0  0  0  0
  2 28  1  0  0  0  0
  2 29  1  0  0  0  0
  3  4  1  0  0  0  0
  4 24  2  0  0  0  0
  4  5  1  0  0  0  0
  5  6  2  0  0  0  0
  5 30  1  0  0  0  0
  6  7  1  0  0  0  0
  6 31  1  0  0  0  0
  7  8  1  0  0  0  0
  7 21  2  0  0  0  0
  8  9  2  0  0  0  0
  8 32  1  0  0  0  0
  9 19  1  0  0  0  0
  9 10  1  0  0  0  0
 10 11  2  0  0  0  0
 11 12  1  0  0  0  0
 11 18  1  0  0  0  0
 12 17  2  0  0  0  0
 12 13  1  0  0  0  0
 13 14  2  0  0  0  0
 13 33  1  0  0  0  0
 14 15  1  0  0  0  0
 14 34  1  0  0  0  0
 15 16  2  0  0  0  0
 15 35  1  0  0  0  0
 16 17  1  0  0  0  0
 16 36  1  0  0  0  0
 17 37  1  0  0  0  0
 18 19  1  0  0  0  0
 19 20  2  0  0  0  0
 21 22  1  0  0  0  0
 21 24  1  0  0  0  0
 22 23  1  0  0  0  0
 23 38  1  0  0  0  0
 23 39  1  0  0  0  0
 23 40  1  0  0  0  0
 24 41  1  0  0  0  0
M  END
$$$$
