ZINC000000024705      none
 OpenBabel11202420153D

 35 36  0  0  0  0  0  0  0  0999 V2000
   31.6921   34.9251   68.1595 N   0  0  0  0  0  0  0  0  0  0  0  0
   31.7397   36.1423   67.5828 C   0  0  0  0  0  0  0  0  0  0  0  0
   32.6295   36.9149   67.8699 O   0  0  0  0  0  0  0  0  0  0  0  0
   30.6875   36.5436   66.5814 C   0  0  0  0  0  0  0  0  0  0  0  0
   31.4767   36.9137   64.9906 S   0  0  0  0  0  0  0  0  0  0  0  0
   32.5067   35.9613   64.7637 O   0  0  0  0  0  0  0  0  0  0  0  0
   31.7918   38.2987   64.9529 O   0  0  0  0  0  0  0  0  0  0  0  0
   30.1277   36.5957   63.8201 C   0  0  0  0  0  0  0  0  0  0  0  0
   30.6091   36.8566   62.4160 C   0  0  0  0  0  0  0  0  0  0  0  0
   31.9092   37.2721   62.1970 C   0  0  0  0  0  0  0  0  0  0  0  0
   32.3521   37.5067   60.9088 C   0  0  0  0  0  0  0  0  0  0  0  0
   31.4918   37.3360   59.8403 C   0  0  0  0  0  0  0  0  0  0  0  0
   30.1901   36.9256   60.0597 C   0  0  0  0  0  0  0  0  0  0  0  0
   29.7488   36.6860   61.3476 C   0  0  0  0  0  0  0  0  0  0  0  0
   29.6858   35.1601   63.9409 C   0  0  0  0  0  0  0  0  0  0  0  0
   30.5845   34.1377   63.7005 C   0  0  0  0  0  0  0  0  0  0  0  0
   30.1805   32.8208   63.8159 C   0  0  0  0  0  0  0  0  0  0  0  0
   28.8748   32.5262   64.1616 C   0  0  0  0  0  0  0  0  0  0  0  0
   27.9747   33.5486   64.3969 C   0  0  0  0  0  0  0  0  0  0  0  0
   28.3802   34.8655   64.2866 C   0  0  0  0  0  0  0  0  0  0  0  0
   30.9805   34.3072   67.9299 H   0  0  0  0  0  0  0  0  0  0  0  0
   32.3694   34.6669   68.8041 H   0  0  0  0  0  0  0  0  0  0  0  0
   30.1623   37.4284   66.9409 H   0  0  0  0  0  0  0  0  0  0  0  0
   29.9774   35.7265   66.4534 H   0  0  0  0  0  0  0  0  0  0  0  0
   29.2889   37.2542   64.0448 H   0  0  0  0  0  0  0  0  0  0  0  0
   32.5801   37.4098   63.0322 H   0  0  0  0  0  0  0  0  0  0  0  0
   33.3690   37.8277   60.7374 H   0  0  0  0  0  0  0  0  0  0  0  0
   31.8366   37.5237   58.8342 H   0  0  0  0  0  0  0  0  0  0  0  0
   29.5179   36.7926   59.2249 H   0  0  0  0  0  0  0  0  0  0  0  0
   28.7317   36.3657   61.5191 H   0  0  0  0  0  0  0  0  0  0  0  0
   31.6035   34.3678   63.4260 H   0  0  0  0  0  0  0  0  0  0  0  0
   30.8836   32.0220   63.6317 H   0  0  0  0  0  0  0  0  0  0  0  0
   28.5579   31.4974   64.2475 H   0  0  0  0  0  0  0  0  0  0  0  0
   26.9545   33.3185   64.6666 H   0  0  0  0  0  0  0  0  0  0  0  0
   27.6768   35.6643   64.4701 H   0  0  0  0  0  0  0  0  0  0  0  0
  1  2  1  0  0  0  0
  1 21  1  0  0  0  0
  1 22  1  0  0  0  0
  2  3  2  0  0  0  0
  2  4  1  0  0  0  0
  4  5  1  0  0  0  0
  4 23  1  0  0  0  0
  4 24  1  0  0  0  0
  5  6  2  0  0  0  0
  5  7  2  0  0  0  0
  5  8  1  0  0  0  0
  8  9  1  0  0  0  0
  8 15  1  0  0  0  0
  8 25  1  0  0  0  0
  9 14  2  0  0  0  0
  9 10  1  0  0  0  0
 10 11  2  0  0  0  0
 10 26  1  0  0  0  0
 11 12  1  0  0  0  0
 11 27  1  0  0  0  0
 12 13  2  0  0  0  0
 12 28  1  0  0  0  0
 13 14  1  0  0  0  0
 13 29  1  0  0  0  0
 14 30  1  0  0  0  0
 15 20  2  0  0  0  0
 15 16  1  0  0  0  0
 16 17  2  0  0  0  0
 16 31  1  0  0  0  0
 17 18  1  0  0  0  0
 17 32  1  0  0  0  0
 18 19  2  0  0  0  0
 18 33  1  0  0  0  0
 19 20  1  0  0  0  0
 19 34  1  0  0  0  0
 20 35  1  0  0  0  0
M  END
$$$$
