ZINC000000029934      none
 OpenBabel11202420163D

 33 33  0  0  0  0  0  0  0  0999 V2000
   35.3699   31.0443   55.1279 C   0  0  0  0  0  0  0  0  0  0  0  0
   34.0469   31.5542   55.4400 O   0  0  0  0  0  0  0  0  0  0  0  0
   33.8293   32.8602   55.2190 C   0  0  0  0  0  0  0  0  0  0  0  0
   34.7152   33.5543   54.7793 O   0  0  0  0  0  0  0  0  0  0  0  0
   32.4801   33.4608   55.5192 C   0  0  0  0  0  0  0  0  0  0  0  0
   32.6442   34.8673   55.8946 N   0  0  0  0  0  0  0  0  0  0  0  0
   32.8301   35.2026   57.1867 C   0  0  0  0  0  0  0  0  0  0  0  0
   32.8564   34.3384   58.0412 O   0  0  0  0  0  0  0  0  0  0  0  0
   33.0019   36.6217   57.5649 C   0  0  0  0  0  0  0  0  0  0  0  0
   33.5261   37.5319   56.6466 C   0  0  0  0  0  0  0  0  0  0  0  0
   33.6804   38.8614   57.0032 C   0  0  0  0  0  0  0  0  0  0  0  0
   34.1861   39.7499   56.1077 O   0  0  0  0  0  0  0  0  0  0  0  0
   34.5367   39.2432   54.8184 C   0  0  0  0  0  0  0  0  0  0  0  0
   33.3244   39.2863   58.2749 C   0  0  0  0  0  0  0  0  0  0  0  0
   32.8082   38.3834   59.1930 C   0  0  0  0  0  0  0  0  0  0  0  0
   32.4618   38.8046   60.4379 O   0  0  0  0  0  0  0  0  0  0  0  0
   31.9366   37.8218   61.3326 C   0  0  0  0  0  0  0  0  0  0  0  0
   32.6456   37.0532   58.8429 C   0  0  0  0  0  0  0  0  0  0  0  0
   36.1129   31.5706   55.7272 H   0  0  0  0  0  0  0  0  0  0  0  0
   35.4109   29.9784   55.3523 H   0  0  0  0  0  0  0  0  0  0  0  0
   35.5795   31.2012   54.0696 H   0  0  0  0  0  0  0  0  0  0  0  0
   32.0153   32.9170   56.3417 H   0  0  0  0  0  0  0  0  0  0  0  0
   31.8469   33.3922   54.6346 H   0  0  0  0  0  0  0  0  0  0  0  0
   32.6232   35.5569   55.2127 H   0  0  0  0  0  0  0  0  0  0  0  0
   33.8076   37.2010   55.6578 H   0  0  0  0  0  0  0  0  0  0  0  0
   33.6530   38.8182   54.3423 H   0  0  0  0  0  0  0  0  0  0  0  0
   34.9265   40.0540   54.2030 H   0  0  0  0  0  0  0  0  0  0  0  0
   35.2982   38.4707   54.9265 H   0  0  0  0  0  0  0  0  0  0  0  0
   33.4499   40.3227   58.5512 H   0  0  0  0  0  0  0  0  0  0  0  0
   31.0309   37.3900   60.9069 H   0  0  0  0  0  0  0  0  0  0  0  0
   32.6769   37.0364   61.4846 H   0  0  0  0  0  0  0  0  0  0  0  0
   31.7016   38.2895   62.2886 H   0  0  0  0  0  0  0  0  0  0  0  0
   32.2440   36.3509   59.5584 H   0  0  0  0  0  0  0  0  0  0  0  0
  1  2  1  0  0  0  0
  1 19  1  0  0  0  0
  1 20  1  0  0  0  0
  1 21  1  0  0  0  0
  2  3  1  0  0  0  0
  3  4  2  0  0  0  0
  3  5  1  0  0  0  0
  5  6  1  0  0  0  0
  5 22  1  0  0  0  0
  5 23  1  0  0  0  0
  6  7  1  0  0  0  0
  6 24  1  0  0  0  0
  7  8  2  0  0  0  0
  7  9  1  0  0  0  0
  9 18  2  0  0  0  0
  9 10  1  0  0  0  0
 10 11  2  0  0  0  0
 10 25  1  0  0  0  0
 11 12  1  0  0  0  0
 11 14  1  0  0  0  0
 12 13  1  0  0  0  0
 13 26  1  0  0  0  0
 13 27  1  0  0  0  0
 13 28  1  0  0  0  0
 14 15  2  0  0  0  0
 14 29  1  0  0  0  0
 15 16  1  0  0  0  0
 15 18  1  0  0  0  0
 16 17  1  0  0  0  0
 17 30  1  0  0  0  0
 17 31  1  0  0  0  0
 17 32  1  0  0  0  0
 18 33  1  0  0  0  0
M  END
$$$$
