ZINC000000029028      none
 OpenBabel11202420163D

 44 47  0  0  0  0  0  0  0  0999 V2000
   28.2383   35.4014   67.4971 C   0  0  0  0  0  0  0  0  0  0  0  0
   28.9800   36.7028   67.3323 C   0  0  0  0  0  0  0  0  0  0  0  0
   28.5477   37.9144   67.7830 C   0  0  0  0  0  0  0  0  0  0  0  0
   27.3300   38.1819   68.4874 C   0  0  0  0  0  0  0  0  0  0  0  0
   26.3641   38.3942   69.0462 N   0  0  0  0  0  0  0  0  0  0  0  0
   29.5807   38.8952   67.4029 C   0  0  0  0  0  0  0  0  0  0  0  0
   29.7193   40.2704   67.5761 C   0  0  0  0  0  0  0  0  0  0  0  0
   30.8444   40.9074   67.1009 C   0  0  0  0  0  0  0  0  0  0  0  0
   31.8310   40.1878   66.4418 C   0  0  0  0  0  0  0  0  0  0  0  0
   31.7051   38.8282   66.2600 C   0  0  0  0  0  0  0  0  0  0  0  0
   30.5799   38.1649   66.7394 C   0  0  0  0  0  0  0  0  0  0  0  0
   30.1789   36.8455   66.7122 N   0  0  0  0  0  0  0  0  0  0  0  0
   30.9421   35.7518   66.1055 C   0  0  0  0  0  0  0  0  0  0  0  0
   31.4500   36.1833   64.7539 C   0  0  0  0  0  0  0  0  0  0  0  0
   32.6423   36.2041   64.5323 O   0  0  0  0  0  0  0  0  0  0  0  0
   30.5793   36.5462   63.7912 N   0  0  0  0  0  0  0  0  0  0  0  0
   29.1324   36.5245   64.0460 C   0  0  0  0  0  0  0  0  0  0  0  0
   28.4511   35.8791   62.8321 C   0  0  0  0  0  0  0  0  0  0  0  0
   28.6973   36.7549   61.6039 C   0  0  0  0  0  0  0  0  0  0  0  0
   30.1655   37.0561   61.4564 C   0  0  0  0  0  0  0  0  0  0  0  0
   30.6481   37.4481   60.2188 C   0  0  0  0  0  0  0  0  0  0  0  0
   31.9890   37.7345   60.0526 C   0  0  0  0  0  0  0  0  0  0  0  0
   32.8593   37.6320   61.1226 C   0  0  0  0  0  0  0  0  0  0  0  0
   32.3866   37.2405   62.3590 C   0  0  0  0  0  0  0  0  0  0  0  0
   31.0374   36.9502   62.5282 C   0  0  0  0  0  0  0  0  0  0  0  0
   28.5408   34.9265   68.4303 H   0  0  0  0  0  0  0  0  0  0  0  0
   27.1658   35.5947   67.5188 H   0  0  0  0  0  0  0  0  0  0  0  0
   28.4718   34.7418   66.6613 H   0  0  0  0  0  0  0  0  0  0  0  0
   28.9535   40.8325   68.0897 H   0  0  0  0  0  0  0  0  0  0  0  0
   30.9564   41.9730   67.2366 H   0  0  0  0  0  0  0  0  0  0  0  0
   32.7062   40.6986   66.0681 H   0  0  0  0  0  0  0  0  0  0  0  0
   32.4792   38.2775   65.7462 H   0  0  0  0  0  0  0  0  0  0  0  0
   30.2983   34.8799   65.9903 H   0  0  0  0  0  0  0  0  0  0  0  0
   31.7860   35.4983   66.7470 H   0  0  0  0  0  0  0  0  0  0  0  0
   28.7655   37.5424   64.1774 H   0  0  0  0  0  0  0  0  0  0  0  0
   28.9239   35.9386   64.9412 H   0  0  0  0  0  0  0  0  0  0  0  0
   28.8698   34.8870   62.6630 H   0  0  0  0  0  0  0  0  0  0  0  0
   27.3798   35.7969   63.0155 H   0  0  0  0  0  0  0  0  0  0  0  0
   28.3460   36.2332   60.7137 H   0  0  0  0  0  0  0  0  0  0  0  0
   28.1475   37.6898   61.7126 H   0  0  0  0  0  0  0  0  0  0  0  0
   29.9728   37.5306   59.3800 H   0  0  0  0  0  0  0  0  0  0  0  0
   32.3587   38.0397   59.0847 H   0  0  0  0  0  0  0  0  0  0  0  0
   33.9071   37.8582   60.9911 H   0  0  0  0  0  0  0  0  0  0  0  0
   33.0650   37.1598   63.1954 H   0  0  0  0  0  0  0  0  0  0  0  0
  1  2  1  0  0  0  0
  1 26  1  0  0  0  0
  1 27  1  0  0  0  0
  1 28  1  0  0  0  0
  2 12  1  0  0  0  0
  2  3  2  0  0  0  0
  3  4  1  0  0  0  0
  3  6  1  0  0  0  0
  4  5  3  0  0  0  0
  6 11  2  0  0  0  0
  6  7  1  0  0  0  0
  7  8  2  0  0  0  0
  7 29  1  0  0  0  0
  8  9  1  0  0  0  0
  8 30  1  0  0  0  0
  9 10  2  0  0  0  0
  9 31  1  0  0  0  0
 10 11  1  0  0  0  0
 10 32  1  0  0  0  0
 11 12  1  0  0  0  0
 12 13  1  0  0  0  0
 13 14  1  0  0  0  0
 13 33  1  0  0  0  0
 13 34  1  0  0  0  0
 14 15  2  0  0  0  0
 14 16  1  0  0  0  0
 16 25  1  0  0  0  0
 16 17  1  0  0  0  0
 17 18  1  0  0  0  0
 17 35  1  0  0  0  0
 17 36  1  0  0  0  0
 18 19  1  0  0  0  0
 18 37  1  0  0  0  0
 18 38  1  0  0  0  0
 19 20  1  0  0  0  0
 19 39  1  0  0  0  0
 19 40  1  0  0  0  0
 20 25  2  0  0  0  0
 20 21  1  0  0  0  0
 21 22  2  0  0  0  0
 21 41  1  0  0  0  0
 22 23  1  0  0  0  0
 22 42  1  0  0  0  0
 23 24  2  0  0  0  0
 23 43  1  0  0  0  0
 24 25  1  0  0  0  0
 24 44  1  0  0  0  0
M  END
$$$$
