ZINC000000012507      none
 OpenBabel11202420153D

 33 35  0  0  0  0  0  0  0  0999 V2000
   29.5656   37.7903   62.5472 C   0  0  0  0  0  0  0  0  0  0  0  0
   30.1887   36.4660   62.1012 C   0  0  0  0  0  0  0  0  0  0  0  0
   31.6173   36.6657   61.8239 N   0  0  0  0  0  0  0  0  0  0  0  0
   32.4476   35.8856   62.7512 C   0  0  0  0  0  0  0  0  0  0  0  0
   32.6759   36.6907   64.0320 C   0  0  0  0  0  0  0  0  0  0  0  0
   31.9152   36.3548   60.5109 C   0  0  0  0  0  0  0  0  0  0  0  0
   32.4212   37.2704   59.7162 N   0  0  0  0  0  0  0  0  0  0  0  0
   32.7233   36.9942   58.4217 C   0  0  0  0  0  0  0  0  0  0  0  0
   33.2616   37.9946   57.6019 C   0  0  0  0  0  0  0  0  0  0  0  0
   33.5678   37.7166   56.2899 C   0  0  0  0  0  0  0  0  0  0  0  0
   33.3472   36.4496   55.7702 C   0  0  0  0  0  0  0  0  0  0  0  0
   32.8173   35.4529   56.5622 C   0  0  0  0  0  0  0  0  0  0  0  0
   32.5020   35.7127   57.8899 C   0  0  0  0  0  0  0  0  0  0  0  0
   31.9704   34.7178   58.6935 N   0  0  0  0  0  0  0  0  0  0  0  0
   31.6437   33.4245   58.5073 C   0  0  0  0  0  0  0  0  0  0  0  0
   31.1725   32.9689   59.6425 N   0  0  0  0  0  0  0  0  0  0  0  0
   31.1839   33.9002   60.5319 N   0  0  0  0  0  0  0  0  0  0  0  0
   31.6669   35.0036   60.0021 C   0  0  0  0  0  0  0  0  0  0  0  0
   30.0654   38.1410   63.4501 H   0  0  0  0  0  0  0  0  0  0  0  0
   29.6821   38.5312   61.7563 H   0  0  0  0  0  0  0  0  0  0  0  0
   28.5055   37.6420   62.7529 H   0  0  0  0  0  0  0  0  0  0  0  0
   29.6889   36.1152   61.1982 H   0  0  0  0  0  0  0  0  0  0  0  0
   30.0722   35.7250   62.8920 H   0  0  0  0  0  0  0  0  0  0  0  0
   31.9411   34.9516   62.9946 H   0  0  0  0  0  0  0  0  0  0  0  0
   33.4076   35.6670   62.2835 H   0  0  0  0  0  0  0  0  0  0  0  0
   33.2129   36.0777   64.7558 H   0  0  0  0  0  0  0  0  0  0  0  0
   33.2630   37.5800   63.8024 H   0  0  0  0  0  0  0  0  0  0  0  0
   31.7143   36.9883   64.4504 H   0  0  0  0  0  0  0  0  0  0  0  0
   33.4357   38.9834   57.9996 H   0  0  0  0  0  0  0  0  0  0  0  0
   33.9786   38.4911   55.6592 H   0  0  0  0  0  0  0  0  0  0  0  0
   33.5915   36.2426   54.7387 H   0  0  0  0  0  0  0  0  0  0  0  0
   32.6489   34.4688   56.1503 H   0  0  0  0  0  0  0  0  0  0  0  0
   31.7498   32.8648   57.5897 H   0  0  0  0  0  0  0  0  0  0  0  0
  1  2  1  0  0  0  0
  1 19  1  0  0  0  0
  1 20  1  0  0  0  0
  1 21  1  0  0  0  0
  2  3  1  0  0  0  0
  2 22  1  0  0  0  0
  2 23  1  0  0  0  0
  3  4  1  0  0  0  0
  3  6  1  0  0  0  0
  4  5  1  0  0  0  0
  4 24  1  0  0  0  0
  4 25  1  0  0  0  0
  5 26  1  0  0  0  0
  5 27  1  0  0  0  0
  5 28  1  0  0  0  0
  6 18  1  0  0  0  0
  6  7  2  0  0  0  0
  7  8  1  0  0  0  0
  8 13  2  0  0  0  0
  8  9  1  0  0  0  0
  9 10  2  0  0  0  0
  9 29  1  0  0  0  0
 10 11  1  0  0  0  0
 10 30  1  0  0  0  0
 11 12  2  0  0  0  0
 11 31  1  0  0  0  0
 12 13  1  0  0  0  0
 12 32  1  0  0  0  0
 13 14  1  0  0  0  0
 14 18  1  0  0  0  0
 14 15  1  0  0  0  0
 15 16  2  0  0  0  0
 15 33  1  0  0  0  0
 16 17  1  0  0  0  0
 17 18  2  0  0  0  0
M  END
$$$$
