ZINC000000029390      none
 OpenBabel11202420163D

 25 25  0  0  0  0  0  0  0  0999 V2000
   31.0009   34.3385   63.2920 N   0  0  0  0  0  0  0  0  0  0  0  0
   31.1528   34.5560   62.1874 C   0  0  0  0  0  0  0  0  0  0  0  0
   31.3497   34.8377   60.7561 C   0  0  0  0  0  0  0  0  0  0  0  0
   30.8387   36.1755   60.4470 N   0  0  0  0  0  0  0  0  0  0  0  0
   29.4428   36.3499   60.0381 C   0  0  0  0  0  0  0  0  0  0  0  0
   28.6070   36.5745   61.2288 C   0  0  0  0  0  0  0  0  0  0  0  0
   27.9620   36.7480   62.1479 N   0  0  0  0  0  0  0  0  0  0  0  0
   31.8389   37.4904   60.5596 S   0  0  0  0  0  0  0  0  0  0  0  0
   32.8762   37.1295   61.4613 O   0  0  0  0  0  0  0  0  0  0  0  0
   30.9977   38.6190   60.7542 O   0  0  0  0  0  0  0  0  0  0  0  0
   32.6003   37.7031   58.9849 C   0  0  0  0  0  0  0  0  0  0  0  0
   32.9662   38.9663   58.5590 C   0  0  0  0  0  0  0  0  0  0  0  0
   33.5643   39.1330   57.3240 C   0  0  0  0  0  0  0  0  0  0  0  0
   33.7970   38.0365   56.5150 C   0  0  0  0  0  0  0  0  0  0  0  0
   33.4262   36.7740   56.9386 C   0  0  0  0  0  0  0  0  0  0  0  0
   32.8321   36.6067   58.1755 C   0  0  0  0  0  0  0  0  0  0  0  0
   30.8129   34.0976   60.1629 H   0  0  0  0  0  0  0  0  0  0  0  0
   32.4128   34.7913   60.5196 H   0  0  0  0  0  0  0  0  0  0  0  0
   29.3638   37.2087   59.3716 H   0  0  0  0  0  0  0  0  0  0  0  0
   29.1018   35.4541   59.5188 H   0  0  0  0  0  0  0  0  0  0  0  0
   32.7850   39.8229   59.1914 H   0  0  0  0  0  0  0  0  0  0  0  0
   33.8502   40.1199   56.9913 H   0  0  0  0  0  0  0  0  0  0  0  0
   34.2643   38.1668   55.5501 H   0  0  0  0  0  0  0  0  0  0  0  0
   33.6040   35.9178   56.3047 H   0  0  0  0  0  0  0  0  0  0  0  0
   32.5466   35.6197   58.5083 H   0  0  0  0  0  0  0  0  0  0  0  0
  1  2  3  0  0  0  0
  2  3  1  0  0  0  0
  3  4  1  0  0  0  0
  3 17  1  0  0  0  0
  3 18  1  0  0  0  0
  4  5  1  0  0  0  0
  4  8  1  0  0  0  0
  5  6  1  0  0  0  0
  5 19  1  0  0  0  0
  5 20  1  0  0  0  0
  6  7  3  0  0  0  0
  8  9  2  0  0  0  0
  8 10  2  0  0  0  0
  8 11  1  0  0  0  0
 11 16  2  0  0  0  0
 11 12  1  0  0  0  0
 12 13  2  0  0  0  0
 12 21  1  0  0  0  0
 13 14  1  0  0  0  0
 13 22  1  0  0  0  0
 14 15  2  0  0  0  0
 14 23  1  0  0  0  0
 15 16  1  0  0  0  0
 15 24  1  0  0  0  0
 16 25  1  0  0  0  0
M  END
$$$$
