ZINC000000049758      none
 OpenBabel11202420153D

 27 29  0  0  0  0  0  0  0  0999 V2000
   31.1968   37.3655   63.1577 N   0  0  0  0  0  0  0  0  0  0  0  0
   31.5723   37.3849   62.0857 C   0  0  0  0  0  0  0  0  0  0  0  0
   32.0458   37.4092   60.7344 C   0  0  0  0  0  0  0  0  0  0  0  0
   32.5919   38.8505   59.9006 S   0  0  0  0  0  0  0  0  0  0  0  0
   32.9453   37.9569   58.4263 C   0  0  0  0  0  0  0  0  0  0  0  0
   33.4180   38.3913   57.2562 N   0  0  0  0  0  0  0  0  0  0  0  0
   33.6287   37.5722   56.2381 C   0  0  0  0  0  0  0  0  0  0  0  0
   34.1527   38.1085   54.9680 C   0  0  0  0  0  0  0  0  0  0  0  0
   34.4449   39.4050   54.7305 C   0  0  0  0  0  0  0  0  0  0  0  0
   34.9268   39.6643   53.4661 C   0  0  0  0  0  0  0  0  0  0  0  0
   35.0215   38.5971   52.6655 C   0  0  0  0  0  0  0  0  0  0  0  0
   34.4866   37.1593   53.5253 S   0  0  0  0  0  0  0  0  0  0  0  0
   33.3605   36.2016   56.3525 C   0  0  0  0  0  0  0  0  0  0  0  0
   32.8767   35.7090   57.5266 C   0  0  0  0  0  0  0  0  0  0  0  0
   32.5802   34.2389   57.6746 C   0  0  0  0  0  0  0  0  0  0  0  0
   32.8795   33.5800   56.4772 F   0  0  0  0  0  0  0  0  0  0  0  0
   31.2255   34.0644   57.9768 F   0  0  0  0  0  0  0  0  0  0  0  0
   33.3606   33.7074   58.7070 F   0  0  0  0  0  0  0  0  0  0  0  0
   32.6506   36.5997   58.6047 C   0  0  0  0  0  0  0  0  0  0  0  0
   32.1416   36.3177   59.9347 C   0  0  0  0  0  0  0  0  0  0  0  0
   31.7832   35.0401   60.3522 N   0  0  0  0  0  0  0  0  0  0  0  0
   34.3142   40.1774   55.4740 H   0  0  0  0  0  0  0  0  0  0  0  0
   35.2034   40.6573   53.1437 H   0  0  0  0  0  0  0  0  0  0  0  0
   35.3738   38.6155   51.6447 H   0  0  0  0  0  0  0  0  0  0  0  0
   33.5363   35.5409   55.5164 H   0  0  0  0  0  0  0  0  0  0  0  0
   31.8688   34.2892   59.7441 H   0  0  0  0  0  0  0  0  0  0  0  0
   31.4475   34.9000   61.2514 H   0  0  0  0  0  0  0  0  0  0  0  0
  1  2  3  0  0  0  0
  2  3  1  0  0  0  0
  3 20  2  0  0  0  0
  3  4  1  0  0  0  0
  4  5  1  0  0  0  0
  5 19  2  0  0  0  0
  5  6  1  0  0  0  0
  6  7  2  0  0  0  0
  7  8  1  0  0  0  0
  7 13  1  0  0  0  0
  8 12  1  0  0  0  0
  8  9  2  0  0  0  0
  9 10  1  0  0  0  0
  9 22  1  0  0  0  0
 10 11  2  0  0  0  0
 10 23  1  0  0  0  0
 11 12  1  0  0  0  0
 11 24  1  0  0  0  0
 13 14  2  0  0  0  0
 13 25  1  0  0  0  0
 14 15  1  0  0  0  0
 14 19  1  0  0  0  0
 15 16  1  0  0  0  0
 15 17  1  0  0  0  0
 15 18  1  0  0  0  0
 19 20  1  0  0  0  0
 20 21  1  0  0  0  0
 21 26  1  0  0  0  0
 21 27  1  0  0  0  0
M  END
$$$$
