ZINC000000005048      none
 OpenBabel11202420153D

 36 37  0  0  0  0  0  0  0  0999 V2000
   32.3443   35.0859   57.7857 C   0  0  0  0  0  0  0  0  0  0  0  0
   32.0553   35.5500   59.1900 C   0  0  0  0  0  0  0  0  0  0  0  0
   32.4883   36.7938   59.6098 C   0  0  0  0  0  0  0  0  0  0  0  0
   32.2232   37.2195   60.8980 C   0  0  0  0  0  0  0  0  0  0  0  0
   31.5247   36.4016   61.7662 C   0  0  0  0  0  0  0  0  0  0  0  0
   31.2361   36.8654   63.1708 C   0  0  0  0  0  0  0  0  0  0  0  0
   29.9029   37.6156   63.2004 C   0  0  0  0  0  0  0  0  0  0  0  0
   28.7830   36.6840   62.7327 C   0  0  0  0  0  0  0  0  0  0  0  0
   29.6133   38.0848   64.6277 C   0  0  0  0  0  0  0  0  0  0  0  0
   29.9792   38.8283   62.2706 C   0  0  0  0  0  0  0  0  0  0  0  0
   32.2868   37.7326   63.6171 O   0  0  0  0  0  0  0  0  0  0  0  0
   32.8863   37.1238   64.7749 C   0  0  0  0  0  0  0  0  0  0  0  0
   32.4962   35.6320   64.6260 C   0  0  0  0  0  0  0  0  0  0  0  0
   31.1712   35.7304   64.0505 O   0  0  0  0  0  0  0  0  0  0  0  0
   31.0918   35.1576   61.3465 C   0  0  0  0  0  0  0  0  0  0  0  0
   31.3568   34.7319   60.0583 C   0  0  0  0  0  0  0  0  0  0  0  0
   33.2981   34.5585   57.7664 H   0  0  0  0  0  0  0  0  0  0  0  0
   31.5515   34.4152   57.4543 H   0  0  0  0  0  0  0  0  0  0  0  0
   32.3924   35.9482   57.1207 H   0  0  0  0  0  0  0  0  0  0  0  0
   33.0340   37.4329   58.9315 H   0  0  0  0  0  0  0  0  0  0  0  0
   32.5656   38.1894   61.2275 H   0  0  0  0  0  0  0  0  0  0  0  0
   28.7285   35.8202   63.3951 H   0  0  0  0  0  0  0  0  0  0  0  0
   27.8332   37.2185   62.7538 H   0  0  0  0  0  0  0  0  0  0  0  0
   28.9892   36.3498   61.7159 H   0  0  0  0  0  0  0  0  0  0  0  0
   30.4113   38.7484   64.9609 H   0  0  0  0  0  0  0  0  0  0  0  0
   28.6636   38.6192   64.6489 H   0  0  0  0  0  0  0  0  0  0  0  0
   29.5590   37.2208   65.2901 H   0  0  0  0  0  0  0  0  0  0  0  0
   30.1855   38.4941   61.2538 H   0  0  0  0  0  0  0  0  0  0  0  0
   29.0295   39.3627   62.2918 H   0  0  0  0  0  0  0  0  0  0  0  0
   30.7771   39.4920   62.6038 H   0  0  0  0  0  0  0  0  0  0  0  0
   32.4689   37.5415   65.6910 H   0  0  0  0  0  0  0  0  0  0  0  0
   33.9697   37.2422   64.7579 H   0  0  0  0  0  0  0  0  0  0  0  0
   32.4641   35.1382   65.5972 H   0  0  0  0  0  0  0  0  0  0  0  0
   33.1780   35.1159   63.9499 H   0  0  0  0  0  0  0  0  0  0  0  0
   30.5458   34.5186   62.0248 H   0  0  0  0  0  0  0  0  0  0  0  0
   31.0179   33.7604   59.7301 H   0  0  0  0  0  0  0  0  0  0  0  0
  1  2  1  0  0  0  0
  1 17  1  0  0  0  0
  1 18  1  0  0  0  0
  1 19  1  0  0  0  0
  2 16  2  0  0  0  0
  2  3  1  0  0  0  0
  3  4  2  0  0  0  0
  3 20  1  0  0  0  0
  4  5  1  0  0  0  0
  4 21  1  0  0  0  0
  5  6  1  0  0  0  0
  5 15  2  0  0  0  0
  6 14  1  0  0  0  0
  6  7  1  0  0  0  0
  6 11  1  0  0  0  0
  7  8  1  0  0  0  0
  7  9  1  0  0  0  0
  7 10  1  0  0  0  0
  8 22  1  0  0  0  0
  8 23  1  0  0  0  0
  8 24  1  0  0  0  0
  9 25  1  0  0  0  0
  9 26  1  0  0  0  0
  9 27  1  0  0  0  0
 10 28  1  0  0  0  0
 10 29  1  0  0  0  0
 10 30  1  0  0  0  0
 11 12  1  0  0  0  0
 12 13  1  0  0  0  0
 12 31  1  0  0  0  0
 12 32  1  0  0  0  0
 13 14  1  0  0  0  0
 13 33  1  0  0  0  0
 13 34  1  0  0  0  0
 15 16  1  0  0  0  0
 15 35  1  0  0  0  0
 16 36  1  0  0  0  0
M  END
$$$$
