ZINC000000049414      none
 OpenBabel11202420153D

 41 44  0  0  0  0  0  0  0  0999 V2000
   30.5498   39.5933   65.3293 C   0  0  0  0  0  0  0  0  0  0  0  0
   30.2117   38.2874   66.0515 C   0  0  0  0  0  0  0  0  0  0  0  0
   30.8778   37.1809   65.3878 O   0  0  0  0  0  0  0  0  0  0  0  0
   30.2036   36.5677   64.3953 C   0  0  0  0  0  0  0  0  0  0  0  0
   29.1334   36.0397   64.6237 O   0  0  0  0  0  0  0  0  0  0  0  0
   30.7649   36.5371   63.0315 C   0  0  0  0  0  0  0  0  0  0  0  0
   30.0696   35.8963   62.0020 C   0  0  0  0  0  0  0  0  0  0  0  0
   30.5939   35.8748   60.7291 C   0  0  0  0  0  0  0  0  0  0  0  0
   31.8193   36.4795   60.4694 C   0  0  0  0  0  0  0  0  0  0  0  0
   32.3505   36.4509   59.1781 N   0  0  0  0  0  0  0  0  0  0  0  0
   32.5840   37.6174   58.5471 C   0  0  0  0  0  0  0  0  0  0  0  0
   32.3316   38.6678   59.1053 O   0  0  0  0  0  0  0  0  0  0  0  0
   33.1469   37.6281   57.1892 C   0  0  0  0  0  0  0  0  0  0  0  0
   33.4069   38.8059   56.5041 C   0  0  0  0  0  0  0  0  0  0  0  0
   33.9356   38.7642   55.2193 C   0  0  0  0  0  0  0  0  0  0  0  0
   34.2126   37.5804   54.5977 C   0  0  0  0  0  0  0  0  0  0  0  0
   33.9629   36.3641   55.2569 C   0  0  0  0  0  0  0  0  0  0  0  0
   34.2311   35.1200   54.6597 C   0  0  0  0  0  0  0  0  0  0  0  0
   33.9714   33.9651   55.3403 C   0  0  0  0  0  0  0  0  0  0  0  0
   33.4425   33.9802   56.6257 C   0  0  0  0  0  0  0  0  0  0  0  0
   33.1643   35.1870   57.2503 C   0  0  0  0  0  0  0  0  0  0  0  0
   33.4272   36.3933   56.5613 C   0  0  0  0  0  0  0  0  0  0  0  0
   32.6050   35.2578   58.6080 C   0  0  0  0  0  0  0  0  0  0  0  0
   32.3713   34.2332   59.2199 O   0  0  0  0  0  0  0  0  0  0  0  0
   32.5168   37.1131   61.4926 C   0  0  0  0  0  0  0  0  0  0  0  0
   31.9961   37.1437   62.7668 C   0  0  0  0  0  0  0  0  0  0  0  0
   30.0498   40.4238   65.8276 H   0  0  0  0  0  0  0  0  0  0  0  0
   31.6279   39.7521   65.3514 H   0  0  0  0  0  0  0  0  0  0  0  0
   30.2124   39.5341   64.2946 H   0  0  0  0  0  0  0  0  0  0  0  0
   29.1336   38.1285   66.0293 H   0  0  0  0  0  0  0  0  0  0  0  0
   30.5492   38.3465   67.0861 H   0  0  0  0  0  0  0  0  0  0  0  0
   29.1204   35.4224   62.2039 H   0  0  0  0  0  0  0  0  0  0  0  0
   30.0553   35.3834   59.9323 H   0  0  0  0  0  0  0  0  0  0  0  0
   33.1984   39.7575   56.9703 H   0  0  0  0  0  0  0  0  0  0  0  0
   34.1324   39.6906   54.7003 H   0  0  0  0  0  0  0  0  0  0  0  0
   34.6234   37.5786   53.5989 H   0  0  0  0  0  0  0  0  0  0  0  0
   34.6422   35.0776   53.6620 H   0  0  0  0  0  0  0  0  0  0  0  0
   34.1826   33.0167   54.8687 H   0  0  0  0  0  0  0  0  0  0  0  0
   33.2480   33.0502   57.1392 H   0  0  0  0  0  0  0  0  0  0  0  0
   33.4678   37.5819   61.2873 H   0  0  0  0  0  0  0  0  0  0  0  0
   32.5380   37.6361   63.5607 H   0  0  0  0  0  0  0  0  0  0  0  0
  1  2  1  0  0  0  0
  1 27  1  0  0  0  0
  1 28  1  0  0  0  0
  1 29  1  0  0  0  0
  2  3  1  0  0  0  0
  2 30  1  0  0  0  0
  2 31  1  0  0  0  0
  3  4  1  0  0  0  0
  4  5  2  0  0  0  0
  4  6  1  0  0  0  0
  6 26  2  0  0  0  0
  6  7  1  0  0  0  0
  7  8  2  0  0  0  0
  7 32  1  0  0  0  0
  8  9  1  0  0  0  0
  8 33  1  0  0  0  0
  9 10  1  0  0  0  0
  9 25  2  0  0  0  0
 10 23  1  0  0  0  0
 10 11  1  0  0  0  0
 11 12  2  0  0  0  0
 11 13  1  0  0  0  0
 13 22  2  0  0  0  0
 13 14  1  0  0  0  0
 14 15  2  0  0  0  0
 14 34  1  0  0  0  0
 15 16  1  0  0  0  0
 15 35  1  0  0  0  0
 16 17  2  0  0  0  0
 16 36  1  0  0  0  0
 17 22  1  0  0  0  0
 17 18  1  0  0  0  0
 18 19  2  0  0  0  0
 18 37  1  0  0  0  0
 19 20  1  0  0  0  0
 19 38  1  0  0  0  0
 20 21  2  0  0  0  0
 20 39  1  0  0  0  0
 21 22  1  0  0  0  0
 21 23  1  0  0  0  0
 23 24  2  0  0  0  0
 25 26  1  0  0  0  0
 25 40  1  0  0  0  0
 26 41  1  0  0  0  0
M  END
$$$$
