ZINC000000014886      none
 OpenBabel11202420153D

 47 49  0  0  1  0  0  0  0  0999 V2000
   24.0992   39.5220   66.9682 C   0  0  0  0  0  0  0  0  0  0  0  0
   23.9329   40.7941   67.8019 C   0  0  0  0  0  0  0  0  0  0  0  0
   24.7696   41.9188   67.1886 C   0  0  0  0  0  0  0  0  0  0  0  0
   26.2212   41.5142   67.1736 C   0  0  0  0  0  0  0  0  0  0  0  0
   26.7355   40.8420   66.0841 C   0  0  0  0  0  0  0  0  0  0  0  0
   28.0762   40.4674   66.0583 C   0  0  0  0  0  0  0  0  0  0  0  0
   28.8810   40.7729   67.1484 C   0  0  0  0  0  0  0  0  0  0  0  0
   28.3700   41.4420   68.2378 C   0  0  0  0  0  0  0  0  0  0  0  0
   27.0328   41.8144   68.2573 C   0  0  0  0  0  0  0  0  0  0  0  0
   26.5226   42.4742   69.3312 O   0  0  0  0  0  0  0  0  0  0  0  0
   30.2661   40.2360   66.8425 C   0  0  1  0  0  0  0  0  0  0  0  0
   30.9375   41.0391   66.5390 H   0  0  0  0  0  0  0  0  0  0  0  0
   30.8348   39.4753   68.0419 C   0  0  0  0  0  0  0  0  0  0  0  0
   29.9836   39.2761   65.6626 C   0  0  2  0  0  0  0  0  0  0  0  0
   29.8148   38.2601   66.0196 H   0  0  0  0  0  0  0  0  0  0  0  0
   31.1304   39.3092   64.6504 C   0  0  0  0  0  0  0  0  0  0  0  0
   31.0396   38.1051   63.7487 C   0  0  0  0  0  0  0  0  0  0  0  0
   30.3098   38.1743   62.5764 C   0  0  0  0  0  0  0  0  0  0  0  0
   30.2296   37.0736   61.7454 C   0  0  0  0  0  0  0  0  0  0  0  0
   30.8728   35.8947   62.0936 C   0  0  0  0  0  0  0  0  0  0  0  0
   30.7913   34.8091   61.2803 O   0  0  0  0  0  0  0  0  0  0  0  0
   31.4786   33.6293   61.7023 C   0  0  0  0  0  0  0  0  0  0  0  0
   31.5998   35.8262   63.2732 C   0  0  0  0  0  0  0  0  0  0  0  0
   31.6815   36.9314   64.0980 C   0  0  0  0  0  0  0  0  0  0  0  0
   28.7828   39.8207   65.0896 O   0  0  0  0  0  0  0  0  0  0  0  0
   25.1491   39.2294   66.9574 H   0  0  0  0  0  0  0  0  0  0  0  0
   23.5032   38.7209   67.4051 H   0  0  0  0  0  0  0  0  0  0  0  0
   23.7637   39.7097   65.9482 H   0  0  0  0  0  0  0  0  0  0  0  0
   24.2683   40.6065   68.8219 H   0  0  0  0  0  0  0  0  0  0  0  0
   22.8831   41.0869   67.8127 H   0  0  0  0  0  0  0  0  0  0  0  0
   24.6512   42.8250   67.7826 H   0  0  0  0  0  0  0  0  0  0  0  0
   24.4342   42.1065   66.1687 H   0  0  0  0  0  0  0  0  0  0  0  0
   26.0962   40.6095   65.2453 H   0  0  0  0  0  0  0  0  0  0  0  0
   29.0089   41.6776   69.0760 H   0  0  0  0  0  0  0  0  0  0  0  0
   27.1658   42.6370   70.0347 H   0  0  0  0  0  0  0  0  0  0  0  0
   31.7675   38.9894   67.7551 H   0  0  0  0  0  0  0  0  0  0  0  0
   31.0247   40.1730   68.8577 H   0  0  0  0  0  0  0  0  0  0  0  0
   30.1176   38.7218   68.3677 H   0  0  0  0  0  0  0  0  0  0  0  0
   31.0606   40.2175   64.0518 H   0  0  0  0  0  0  0  0  0  0  0  0
   32.0830   39.2955   65.1801 H   0  0  0  0  0  0  0  0  0  0  0  0
   29.8056   39.0909   62.3080 H   0  0  0  0  0  0  0  0  0  0  0  0
   29.6631   37.1295   60.8276 H   0  0  0  0  0  0  0  0  0  0  0  0
   32.5430   33.8438   61.7986 H   0  0  0  0  0  0  0  0  0  0  0  0
   31.0849   33.3043   62.6651 H   0  0  0  0  0  0  0  0  0  0  0  0
   31.3325   32.8402   60.9647 H   0  0  0  0  0  0  0  0  0  0  0  0
   32.1010   34.9095   63.5466 H   0  0  0  0  0  0  0  0  0  0  0  0
   32.2475   36.8786   65.0163 H   0  0  0  0  0  0  0  0  0  0  0  0
  1  2  1  0  0  0  0
  1 26  1  0  0  0  0
  1 27  1  0  0  0  0
  1 28  1  0  0  0  0
  2  3  1  0  0  0  0
  2 29  1  0  0  0  0
  2 30  1  0  0  0  0
  3  4  1  0  0  0  0
  3 31  1  0  0  0  0
  3 32  1  0  0  0  0
  4  9  2  0  0  0  0
  4  5  1  0  0  0  0
  5  6  2  0  0  0  0
  5 33  1  0  0  0  0
  6 25  1  0  0  0  0
  6  7  1  0  0  0  0
  7  8  2  0  0  0  0
  7 11  1  0  0  0  0
  8  9  1  0  0  0  0
  8 34  1  0  0  0  0
  9 10  1  0  0  0  0
 10 35  1  0  0  0  0
 11 12  1  6  0  0  0
 11 13  1  0  0  0  0
 11 14  1  0  0  0  0
 13 36  1  0  0  0  0
 13 37  1  0  0  0  0
 13 38  1  0  0  0  0
 14 15  1  1  0  0  0
 14 16  1  0  0  0  0
 14 25  1  0  0  0  0
 16 17  1  0  0  0  0
 16 39  1  0  0  0  0
 16 40  1  0  0  0  0
 17 24  2  0  0  0  0
 17 18  1  0  0  0  0
 18 19  2  0  0  0  0
 18 41  1  0  0  0  0
 19 20  1  0  0  0  0
 19 42  1  0  0  0  0
 20 21  1  0  0  0  0
 20 23  2  0  0  0  0
 21 22  1  0  0  0  0
 22 43  1  0  0  0  0
 22 44  1  0  0  0  0
 22 45  1  0  0  0  0
 23 24  1  0  0  0  0
 23 46  1  0  0  0  0
 24 47  1  0  0  0  0
M  END
$$$$
