ZINC000000010261      none
 OpenBabel11202420153D

 46 48  0  0  0  0  0  0  0  0999 V2000
   33.2832   39.7132   58.5386 C   0  0  0  0  0  0  0  0  0  0  0  0
   33.4008   38.3126   58.9035 O   0  0  0  0  0  0  0  0  0  0  0  0
   32.6162   37.4396   58.2406 C   0  0  0  0  0  0  0  0  0  0  0  0
   31.8546   37.8382   57.3811 O   0  0  0  0  0  0  0  0  0  0  0  0
   32.6818   36.0054   58.5571 C   0  0  0  0  0  0  0  0  0  0  0  0
   33.0105   34.9906   57.7063 C   0  0  0  0  0  0  0  0  0  0  0  0
   33.3769   35.1471   56.2529 C   0  0  0  0  0  0  0  0  0  0  0  0
   32.9590   33.8201   58.3857 N   0  0  0  0  0  0  0  0  0  0  0  0
   33.1548   32.9507   58.0025 H   0  0  0  0  0  0  0  0  0  0  0  0
   32.5971   34.0307   59.6739 C   0  0  0  0  0  0  0  0  0  0  0  0
   32.4354   32.9644   60.7265 C   0  0  0  0  0  0  0  0  0  0  0  0
   32.4025   35.3689   59.8605 C   0  0  0  0  0  0  0  0  0  0  0  0
   32.0012   36.0404   61.1066 C   0  0  0  0  0  0  0  0  0  0  0  0
   32.8487   36.4245   61.8910 O   0  0  0  0  0  0  0  0  0  0  0  0
   30.5724   36.2480   61.4051 C   0  0  0  0  0  0  0  0  0  0  0  0
   29.6712   36.5242   60.3730 C   0  0  0  0  0  0  0  0  0  0  0  0
   28.3366   36.7110   60.6578 C   0  0  0  0  0  0  0  0  0  0  0  0
   27.8825   36.6390   61.9656 C   0  0  0  0  0  0  0  0  0  0  0  0
   28.7600   36.3729   62.9965 C   0  0  0  0  0  0  0  0  0  0  0  0
   30.1092   36.1753   62.7287 C   0  0  0  0  0  0  0  0  0  0  0  0
   30.9948   35.9067   63.7647 N   0  0  0  0  0  0  0  0  0  0  0  0
   30.5298   35.8352   65.0804 C   0  0  0  0  0  0  0  0  0  0  0  0
   31.0333   36.6994   66.0446 C   0  0  0  0  0  0  0  0  0  0  0  0
   30.5674   36.6297   67.3428 C   0  0  0  0  0  0  0  0  0  0  0  0
   29.6088   35.6936   67.6857 C   0  0  0  0  0  0  0  0  0  0  0  0
   29.1100   34.8280   66.7298 C   0  0  0  0  0  0  0  0  0  0  0  0
   29.5672   34.8960   65.4285 C   0  0  0  0  0  0  0  0  0  0  0  0
   33.5334   39.8362   57.4850 H   0  0  0  0  0  0  0  0  0  0  0  0
   32.2607   40.0489   58.7110 H   0  0  0  0  0  0  0  0  0  0  0  0
   33.9675   40.3054   59.1463 H   0  0  0  0  0  0  0  0  0  0  0  0
   32.4769   35.0775   55.6419 H   0  0  0  0  0  0  0  0  0  0  0  0
   33.8462   36.1188   56.0992 H   0  0  0  0  0  0  0  0  0  0  0  0
   34.0724   34.3582   55.9665 H   0  0  0  0  0  0  0  0  0  0  0  0
   33.4028   32.7551   61.1831 H   0  0  0  0  0  0  0  0  0  0  0  0
   31.7402   33.3111   61.4911 H   0  0  0  0  0  0  0  0  0  0  0  0
   32.0464   32.0560   60.2667 H   0  0  0  0  0  0  0  0  0  0  0  0
   30.0201   36.5865   59.3527 H   0  0  0  0  0  0  0  0  0  0  0  0
   27.6409   36.9197   59.8584 H   0  0  0  0  0  0  0  0  0  0  0  0
   26.8349   36.7919   62.1791 H   0  0  0  0  0  0  0  0  0  0  0  0
   28.3981   36.3184   64.0126 H   0  0  0  0  0  0  0  0  0  0  0  0
   31.9360   35.7687   63.5747 H   0  0  0  0  0  0  0  0  0  0  0  0
   31.7851   37.4274   65.7783 H   0  0  0  0  0  0  0  0  0  0  0  0
   30.9550   37.3042   68.0919 H   0  0  0  0  0  0  0  0  0  0  0  0
   29.2489   35.6384   68.7025 H   0  0  0  0  0  0  0  0  0  0  0  0
   28.3616   34.0980   67.0011 H   0  0  0  0  0  0  0  0  0  0  0  0
   29.1773   34.2193   64.6823 H   0  0  0  0  0  0  0  0  0  0  0  0
  1  2  1  0  0  0  0
  1 28  1  0  0  0  0
  1 29  1  0  0  0  0
  1 30  1  0  0  0  0
  2  3  1  0  0  0  0
  3  4  2  0  0  0  0
  3  5  1  0  0  0  0
  5 12  1  0  0  0  0
  5  6  2  0  0  0  0
  6  7  1  0  0  0  0
  6  8  1  0  0  0  0
  7 31  1  0  0  0  0
  7 32  1  0  0  0  0
  7 33  1  0  0  0  0
  8  9  1  0  0  0  0
  8 10  1  0  0  0  0
 10 11  1  0  0  0  0
 10 12  2  0  0  0  0
 11 34  1  0  0  0  0
 11 35  1  0  0  0  0
 11 36  1  0  0  0  0
 12 13  1  0  0  0  0
 13 14  2  0  0  0  0
 13 15  1  0  0  0  0
 15 20  2  0  0  0  0
 15 16  1  0  0  0  0
 16 17  2  0  0  0  0
 16 37  1  0  0  0  0
 17 18  1  0  0  0  0
 17 38  1  0  0  0  0
 18 19  2  0  0  0  0
 18 39  1  0  0  0  0
 19 20  1  0  0  0  0
 19 40  1  0  0  0  0
 20 21  1  0  0  0  0
 21 22  1  0  0  0  0
 21 41  1  0  0  0  0
 22 27  2  0  0  0  0
 22 23  1  0  0  0  0
 23 24  2  0  0  0  0
 23 42  1  0  0  0  0
 24 25  1  0  0  0  0
 24 43  1  0  0  0  0
 25 26  2  0  0  0  0
 25 44  1  0  0  0  0
 26 27  1  0  0  0  0
 26 45  1  0  0  0  0
 27 46  1  0  0  0  0
M  END
$$$$
