ZINC000000022072      none
 OpenBabel11202420153D

 37 38  0  0  0  0  0  0  0  0999 V2000
   31.2346   39.4325   65.9527 C   0  0  0  0  0  0  0  0  0  0  0  0
   32.6275   38.8053   66.0412 C   0  0  0  0  0  0  0  0  0  0  0  0
   32.7228   37.6546   65.0728 C   0  0  0  0  0  0  0  0  0  0  0  0
   33.4477   36.7138   65.3183 O   0  0  0  0  0  0  0  0  0  0  0  0
   32.0024   37.6712   63.9338 N   0  0  0  0  0  0  0  0  0  0  0  0
   32.0950   36.5524   62.9924 C   0  0  0  0  0  0  0  0  0  0  0  0
   31.8546   37.0618   61.5699 C   0  0  0  0  0  0  0  0  0  0  0  0
   31.9498   35.9111   60.6014 C   0  0  0  0  0  0  0  0  0  0  0  0
   31.6416   34.6599   60.8940 C   0  0  0  0  0  0  0  0  0  0  0  0
   31.8761   33.8141   59.6644 C   0  0  0  0  0  0  0  0  0  0  0  0
   32.3621   34.7719   58.6037 C   0  0  0  0  0  0  0  0  0  0  0  0
   32.7357   34.6093   57.2894 C   0  0  0  0  0  0  0  0  0  0  0  0
   33.1543   35.7005   56.5486 C   0  0  0  0  0  0  0  0  0  0  0  0
   33.1972   36.9607   57.1301 C   0  0  0  0  0  0  0  0  0  0  0  0
   33.6086   38.0299   56.3990 O   0  0  0  0  0  0  0  0  0  0  0  0
   33.9812   37.7831   55.0418 C   0  0  0  0  0  0  0  0  0  0  0  0
   32.8221   37.1320   58.4513 C   0  0  0  0  0  0  0  0  0  0  0  0
   32.3994   36.0331   59.2021 C   0  0  0  0  0  0  0  0  0  0  0  0
   31.1657   40.2648   66.6531 H   0  0  0  0  0  0  0  0  0  0  0  0
   31.0635   39.7953   64.9391 H   0  0  0  0  0  0  0  0  0  0  0  0
   30.4827   38.6841   66.2024 H   0  0  0  0  0  0  0  0  0  0  0  0
   32.7987   38.4424   67.0548 H   0  0  0  0  0  0  0  0  0  0  0  0
   33.3794   39.5538   65.7915 H   0  0  0  0  0  0  0  0  0  0  0  0
   31.4226   38.4236   63.7375 H   0  0  0  0  0  0  0  0  0  0  0  0
   31.3429   35.8041   63.2423 H   0  0  0  0  0  0  0  0  0  0  0  0
   33.0872   36.1056   63.0555 H   0  0  0  0  0  0  0  0  0  0  0  0
   32.6067   37.8102   61.3200 H   0  0  0  0  0  0  0  0  0  0  0  0
   30.8624   37.5086   61.5067 H   0  0  0  0  0  0  0  0  0  0  0  0
   31.2873   34.3026   61.8497 H   0  0  0  0  0  0  0  0  0  0  0  0
   32.6331   33.0562   59.8666 H   0  0  0  0  0  0  0  0  0  0  0  0
   30.9455   33.3434   59.3472 H   0  0  0  0  0  0  0  0  0  0  0  0
   32.7025   33.6297   56.8359 H   0  0  0  0  0  0  0  0  0  0  0  0
   33.4477   35.5719   55.5172 H   0  0  0  0  0  0  0  0  0  0  0  0
   33.1304   37.3685   54.5010 H   0  0  0  0  0  0  0  0  0  0  0  0
   34.2885   38.7183   54.5735 H   0  0  0  0  0  0  0  0  0  0  0  0
   34.8089   37.0744   55.0153 H   0  0  0  0  0  0  0  0  0  0  0  0
   32.8564   38.1136   58.9007 H   0  0  0  0  0  0  0  0  0  0  0  0
  1  2  1  0  0  0  0
  1 19  1  0  0  0  0
  1 20  1  0  0  0  0
  1 21  1  0  0  0  0
  2  3  1  0  0  0  0
  2 22  1  0  0  0  0
  2 23  1  0  0  0  0
  3  4  2  0  0  0  0
  3  5  1  0  0  0  0
  5  6  1  0  0  0  0
  5 24  1  0  0  0  0
  6  7  1  0  0  0  0
  6 25  1  0  0  0  0
  6 26  1  0  0  0  0
  7  8  1  0  0  0  0
  7 27  1  0  0  0  0
  7 28  1  0  0  0  0
  8 18  1  0  0  0  0
  8  9  2  0  0  0  0
  9 10  1  0  0  0  0
  9 29  1  0  0  0  0
 10 11  1  0  0  0  0
 10 30  1  0  0  0  0
 10 31  1  0  0  0  0
 11 18  2  0  0  0  0
 11 12  1  0  0  0  0
 12 13  2  0  0  0  0
 12 32  1  0  0  0  0
 13 14  1  0  0  0  0
 13 33  1  0  0  0  0
 14 15  1  0  0  0  0
 14 17  2  0  0  0  0
 15 16  1  0  0  0  0
 16 34  1  0  0  0  0
 16 35  1  0  0  0  0
 16 36  1  0  0  0  0
 17 18  1  0  0  0  0
 17 37  1  0  0  0  0
M  END
$$$$
