ZINC000000034403      none
 OpenBabel11202420153D

 37 40  0  0  0  0  0  0  0  0999 V2000
   33.8025   34.5702   54.9337 C   0  0  0  0  0  0  0  0  0  0  0  0
   33.3898   35.2719   56.2020 C   0  0  0  0  0  0  0  0  0  0  0  0
   32.8841   34.5179   57.2586 C   0  0  0  0  0  0  0  0  0  0  0  0
   32.5054   35.1532   58.4345 C   0  0  0  0  0  0  0  0  0  0  0  0
   31.9695   34.3862   59.5785 C   0  0  0  0  0  0  0  0  0  0  0  0
   30.9575   33.7275   59.4473 O   0  0  0  0  0  0  0  0  0  0  0  0
   32.6035   34.4177   60.7667 O   0  0  0  0  0  0  0  0  0  0  0  0
   31.7847   34.2574   61.9552 C   0  0  0  0  0  0  0  0  0  0  0  0
   31.3157   35.6093   62.4281 C   0  0  0  0  0  0  0  0  0  0  0  0
   30.1082   36.1204   61.9356 C   0  0  0  0  0  0  0  0  0  0  0  0
   29.6276   37.3269   62.3257 C   0  0  0  0  0  0  0  0  0  0  0  0
   30.3643   38.1004   63.2436 C   0  0  0  0  0  0  0  0  0  0  0  0
   30.2721   39.2587   63.8486 N   0  0  0  0  0  0  0  0  0  0  0  0
   31.2427   39.4125   64.5625 O   0  0  0  0  0  0  0  0  0  0  0  0
   32.0549   38.5094   64.5680 N   0  0  0  0  0  0  0  0  0  0  0  0
   31.6467   37.5612   63.7611 C   0  0  0  0  0  0  0  0  0  0  0  0
   32.0778   36.2972   63.3140 C   0  0  0  0  0  0  0  0  0  0  0  0
   32.6499   36.5628   58.5002 C   0  0  0  0  0  0  0  0  0  0  0  0
   32.2912   37.2799   59.6489 C   0  0  0  0  0  0  0  0  0  0  0  0
   32.4451   38.6334   59.6738 C   0  0  0  0  0  0  0  0  0  0  0  0
   32.9545   39.3149   58.5703 C   0  0  0  0  0  0  0  0  0  0  0  0
   33.3125   38.6495   57.4386 C   0  0  0  0  0  0  0  0  0  0  0  0
   33.1682   37.2513   57.3757 C   0  0  0  0  0  0  0  0  0  0  0  0
   33.5115   36.5738   56.2772 N   0  0  0  0  0  0  0  0  0  0  0  0
   32.9513   34.5161   54.2550 H   0  0  0  0  0  0  0  0  0  0  0  0
   34.6115   35.1248   54.4584 H   0  0  0  0  0  0  0  0  0  0  0  0
   34.1431   33.5622   55.1706 H   0  0  0  0  0  0  0  0  0  0  0  0
   32.7911   33.4459   57.1657 H   0  0  0  0  0  0  0  0  0  0  0  0
   30.9212   33.6350   61.7203 H   0  0  0  0  0  0  0  0  0  0  0  0
   32.3727   33.7818   62.7401 H   0  0  0  0  0  0  0  0  0  0  0  0
   29.5410   35.5343   61.2277 H   0  0  0  0  0  0  0  0  0  0  0  0
   28.6910   37.6935   61.9323 H   0  0  0  0  0  0  0  0  0  0  0  0
   33.0066   35.8794   63.6734 H   0  0  0  0  0  0  0  0  0  0  0  0
   31.8954   36.7625   60.5103 H   0  0  0  0  0  0  0  0  0  0  0  0
   32.1685   39.1853   60.5600 H   0  0  0  0  0  0  0  0  0  0  0  0
   33.0674   40.3881   58.6140 H   0  0  0  0  0  0  0  0  0  0  0  0
   33.7061   39.1926   56.5920 H   0  0  0  0  0  0  0  0  0  0  0  0
  1  2  1  0  0  0  0
  1 25  1  0  0  0  0
  1 26  1  0  0  0  0
  1 27  1  0  0  0  0
  2 24  2  0  0  0  0
  2  3  1  0  0  0  0
  3  4  2  0  0  0  0
  3 28  1  0  0  0  0
  4  5  1  0  0  0  0
  4 18  1  0  0  0  0
  5  6  2  0  0  0  0
  5  7  1  0  0  0  0
  7  8  1  0  0  0  0
  8  9  1  0  0  0  0
  8 29  1  0  0  0  0
  8 30  1  0  0  0  0
  9 17  2  0  0  0  0
  9 10  1  0  0  0  0
 10 11  2  0  0  0  0
 10 31  1  0  0  0  0
 11 12  1  0  0  0  0
 11 32  1  0  0  0  0
 12 16  1  0  0  0  0
 12 13  2  0  0  0  0
 13 14  1  0  0  0  0
 14 15  1  0  0  0  0
 15 16  2  0  0  0  0
 16 17  1  0  0  0  0
 17 33  1  0  0  0  0
 18 23  2  0  0  0  0
 18 19  1  0  0  0  0
 19 20  2  0  0  0  0
 19 34  1  0  0  0  0
 20 21  1  0  0  0  0
 20 35  1  0  0  0  0
 21 22  2  0  0  0  0
 21 36  1  0  0  0  0
 22 23  1  0  0  0  0
 22 37  1  0  0  0  0
 23 24  1  0  0  0  0
M  END
$$$$
