ZINC000000032169      none
 OpenBabel11202420153D

 41 44  0  0  1  0  0  0  0  0999 V2000
   30.6246   39.1970   61.8899 O   0  0  0  0  0  0  0  0  0  0  0  0
   30.8957   38.0420   61.6253 C   0  0  0  0  0  0  0  0  0  0  0  0
   30.5761   37.0596   62.4909 N   0  0  0  0  0  0  0  0  0  0  0  0
   29.9020   37.3838   63.7505 C   0  0  1  0  0  0  0  0  0  0  0  0
   28.9489   37.8681   63.5383 H   0  0  0  0  0  0  0  0  0  0  0  0
   29.6593   36.1176   64.5308 C   0  0  0  0  0  0  0  0  0  0  0  0
   28.4854   35.4098   64.3521 C   0  0  0  0  0  0  0  0  0  0  0  0
   28.2628   34.2484   65.0678 C   0  0  0  0  0  0  0  0  0  0  0  0
   29.2144   33.7942   65.9617 C   0  0  0  0  0  0  0  0  0  0  0  0
   30.3887   34.5014   66.1396 C   0  0  0  0  0  0  0  0  0  0  0  0
   30.6107   35.6636   65.4249 C   0  0  0  0  0  0  0  0  0  0  0  0
   30.7448   38.2880   64.5369 N   0  0  0  0  0  0  0  0  0  0  0  0
   32.1462   38.3480   64.5297 N   0  0  0  0  0  0  0  0  0  0  0  0
   32.5395   39.2649   65.3419 N   0  0  0  0  0  0  0  0  0  0  0  0
   31.4799   39.8519   65.9335 C   0  0  0  0  0  0  0  0  0  0  0  0
   31.3575   40.8779   66.8801 C   0  0  0  0  0  0  0  0  0  0  0  0
   30.1199   41.2684   67.3003 C   0  0  0  0  0  0  0  0  0  0  0  0
   28.9755   40.6601   66.8004 C   0  0  0  0  0  0  0  0  0  0  0  0
   29.0680   39.6568   65.8770 C   0  0  0  0  0  0  0  0  0  0  0  0
   30.3180   39.2404   65.4314 C   0  0  0  0  0  0  0  0  0  0  0  0
   31.5760   37.7147   60.3541 C   0  0  0  0  0  0  0  0  0  0  0  0
   31.4032   36.4590   59.7697 C   0  0  0  0  0  0  0  0  0  0  0  0
   32.0374   36.1617   58.5812 C   0  0  0  0  0  0  0  0  0  0  0  0
   32.8513   37.1013   57.9738 C   0  0  0  0  0  0  0  0  0  0  0  0
   33.0306   38.3462   58.5504 C   0  0  0  0  0  0  0  0  0  0  0  0
   32.3984   38.6581   59.7362 C   0  0  0  0  0  0  0  0  0  0  0  0
   30.7925   36.1378   62.2798 H   0  0  0  0  0  0  0  0  0  0  0  0
   27.7420   35.7645   63.6534 H   0  0  0  0  0  0  0  0  0  0  0  0
   27.3455   33.6956   64.9285 H   0  0  0  0  0  0  0  0  0  0  0  0
   29.0386   32.8891   66.5242 H   0  0  0  0  0  0  0  0  0  0  0  0
   31.1322   34.1468   66.8382 H   0  0  0  0  0  0  0  0  0  0  0  0
   31.5280   36.2164   65.5643 H   0  0  0  0  0  0  0  0  0  0  0  0
   32.2403   41.3583   67.2753 H   0  0  0  0  0  0  0  0  0  0  0  0
   30.0287   42.0596   68.0297 H   0  0  0  0  0  0  0  0  0  0  0  0
   28.0040   40.9828   67.1446 H   0  0  0  0  0  0  0  0  0  0  0  0
   28.1731   39.1894   65.4936 H   0  0  0  0  0  0  0  0  0  0  0  0
   30.7716   35.7231   60.2451 H   0  0  0  0  0  0  0  0  0  0  0  0
   31.9016   35.1917   58.1260 H   0  0  0  0  0  0  0  0  0  0  0  0
   33.3491   36.8618   57.0458 H   0  0  0  0  0  0  0  0  0  0  0  0
   33.6672   39.0753   58.0711 H   0  0  0  0  0  0  0  0  0  0  0  0
   32.5398   39.6300   60.1855 H   0  0  0  0  0  0  0  0  0  0  0  0
  1  2  2  0  0  0  0
  2  3  1  0  0  0  0
  2 21  1  0  0  0  0
  3  4  1  0  0  0  0
  3 27  1  0  0  0  0
  4  5  1  6  0  0  0
  4  6  1  0  0  0  0
  4 12  1  0  0  0  0
  6 11  2  0  0  0  0
  6  7  1  0  0  0  0
  7  8  2  0  0  0  0
  7 28  1  0  0  0  0
  8  9  1  0  0  0  0
  8 29  1  0  0  0  0
  9 10  2  0  0  0  0
  9 30  1  0  0  0  0
 10 11  1  0  0  0  0
 10 31  1  0  0  0  0
 11 32  1  0  0  0  0
 12 20  1  0  0  0  0
 12 13  1  0  0  0  0
 13 14  2  0  0  0  0
 14 15  1  0  0  0  0
 15 20  2  0  0  0  0
 15 16  1  0  0  0  0
 16 17  2  0  0  0  0
 16 33  1  0  0  0  0
 17 18  1  0  0  0  0
 17 34  1  0  0  0  0
 18 19  2  0  0  0  0
 18 35  1  0  0  0  0
 19 20  1  0  0  0  0
 19 36  1  0  0  0  0
 21 26  2  0  0  0  0
 21 22  1  0  0  0  0
 22 23  2  0  0  0  0
 22 37  1  0  0  0  0
 23 24  1  0  0  0  0
 23 38  1  0  0  0  0
 24 25  2  0  0  0  0
 24 39  1  0  0  0  0
 25 26  1  0  0  0  0
 25 40  1  0  0  0  0
 26 41  1  0  0  0  0
M  END
$$$$
