ZINC000000010405      none
 OpenBabel11202420153D

 26 27  0  0  0  0  0  0  0  0999 V2000
   28.8690   36.3802   60.2774 O   0  0  0  0  0  0  0  0  0  0  0  0
   29.2564   36.1862   61.4104 C   0  0  0  0  0  0  0  0  0  0  0  0
   28.5555   36.6704   62.6605 C   0  0  0  0  0  0  0  0  0  0  0  0
   29.6268   36.5451   63.7685 C   0  0  0  0  0  0  0  0  0  0  0  0
   30.5478   35.4465   63.1933 C   0  0  0  0  0  0  0  0  0  0  0  0
   30.3677   35.5048   61.7379 N   0  0  0  0  0  0  0  0  0  0  0  0
   31.4030   34.8223   60.6403 S   0  0  0  0  0  0  0  0  0  0  0  0
   32.5126   34.3367   61.3833 O   0  0  0  0  0  0  0  0  0  0  0  0
   30.6090   33.9961   59.7999 O   0  0  0  0  0  0  0  0  0  0  0  0
   32.0165   36.1234   59.6229 C   0  0  0  0  0  0  0  0  0  0  0  0
   32.3732   35.8664   58.3123 C   0  0  0  0  0  0  0  0  0  0  0  0
   32.8499   36.8882   57.5126 C   0  0  0  0  0  0  0  0  0  0  0  0
   32.9798   38.1649   58.0266 C   0  0  0  0  0  0  0  0  0  0  0  0
   32.6280   38.4208   59.3388 C   0  0  0  0  0  0  0  0  0  0  0  0
   32.1463   37.4001   60.1369 C   0  0  0  0  0  0  0  0  0  0  0  0
   28.2449   37.7089   62.5458 H   0  0  0  0  0  0  0  0  0  0  0  0
   27.6960   36.0386   62.8849 H   0  0  0  0  0  0  0  0  0  0  0  0
   30.1691   37.4823   63.8945 H   0  0  0  0  0  0  0  0  0  0  0  0
   29.1791   36.2257   64.7096 H   0  0  0  0  0  0  0  0  0  0  0  0
   31.5861   35.6492   63.4559 H   0  0  0  0  0  0  0  0  0  0  0  0
   30.2482   34.4682   63.5692 H   0  0  0  0  0  0  0  0  0  0  0  0
   32.2759   34.8680   57.9120 H   0  0  0  0  0  0  0  0  0  0  0  0
   33.1251   36.6882   56.4876 H   0  0  0  0  0  0  0  0  0  0  0  0
   33.3564   38.9623   57.4032 H   0  0  0  0  0  0  0  0  0  0  0  0
   32.7298   39.4181   59.7404 H   0  0  0  0  0  0  0  0  0  0  0  0
   31.8718   37.5999   61.1621 H   0  0  0  0  0  0  0  0  0  0  0  0
  1  2  2  0  0  0  0
  2  6  1  0  0  0  0
  2  3  1  0  0  0  0
  3  4  1  0  0  0  0
  3 16  1  0  0  0  0
  3 17  1  0  0  0  0
  4  5  1  0  0  0  0
  4 18  1  0  0  0  0
  4 19  1  0  0  0  0
  5  6  1  0  0  0  0
  5 20  1  0  0  0  0
  5 21  1  0  0  0  0
  6  7  1  0  0  0  0
  7  8  2  0  0  0  0
  7  9  2  0  0  0  0
  7 10  1  0  0  0  0
 10 15  2  0  0  0  0
 10 11  1  0  0  0  0
 11 12  2  0  0  0  0
 11 22  1  0  0  0  0
 12 13  1  0  0  0  0
 12 23  1  0  0  0  0
 13 14  2  0  0  0  0
 13 24  1  0  0  0  0
 14 15  1  0  0  0  0
 14 25  1  0  0  0  0
 15 26  1  0  0  0  0
M  END
$$$$
