ZINC000000038202      none
 OpenBabel11202420153D

 28 30  0  0  0  0  0  0  0  0999 V2000
   29.0370   36.8879   64.0567 N   0  0  0  0  0  0  0  0  0  0  0  0
   29.4250   36.8038   62.7274 C   0  0  0  0  0  0  0  0  0  0  0  0
   28.6177   36.6808   61.7186 N   0  0  0  0  0  0  0  0  0  0  0  0
   29.3677   36.6280   60.5359 N   0  0  0  0  0  0  0  0  0  0  0  0
   30.6959   36.7327   60.8940 C   0  0  0  0  0  0  0  0  0  0  0  0
   31.9708   36.7599   60.4340 C   0  0  0  0  0  0  0  0  0  0  0  0
   32.3916   36.6726   59.0289 C   0  0  0  0  0  0  0  0  0  0  0  0
   32.5340   37.8370   58.2623 C   0  0  0  0  0  0  0  0  0  0  0  0
   32.9287   37.7458   56.9454 C   0  0  0  0  0  0  0  0  0  0  0  0
   33.1896   36.5083   56.3805 C   0  0  0  0  0  0  0  0  0  0  0  0
   33.0464   35.3523   57.1291 C   0  0  0  0  0  0  0  0  0  0  0  0
   32.6525   35.4249   58.4478 C   0  0  0  0  0  0  0  0  0  0  0  0
   32.5024   34.1658   59.2622 C   0  0  0  0  0  0  0  0  0  0  0  0
   32.0959   34.4952   60.5596 F   0  0  0  0  0  0  0  0  0  0  0  0
   31.5430   33.3383   58.6688 F   0  0  0  0  0  0  0  0  0  0  0  0
   33.7290   33.4949   59.3140 F   0  0  0  0  0  0  0  0  0  0  0  0
   32.8249   36.8948   61.5628 N   0  0  0  0  0  0  0  0  0  0  0  0
   32.0303   36.9394   62.6733 N   0  0  0  0  0  0  0  0  0  0  0  0
   30.7279   36.8381   62.2754 N   0  0  0  0  0  0  0  0  0  0  0  0
   29.7067   36.9791   64.7526 H   0  0  0  0  0  0  0  0  0  0  0  0
   28.0962   36.8558   64.2903 H   0  0  0  0  0  0  0  0  0  0  0  0
   29.0186   36.5388   59.6353 H   0  0  0  0  0  0  0  0  0  0  0  0
   32.3347   38.8028   58.7023 H   0  0  0  0  0  0  0  0  0  0  0  0
   33.0386   38.6420   56.3530 H   0  0  0  0  0  0  0  0  0  0  0  0
   33.5026   36.4443   55.3488 H   0  0  0  0  0  0  0  0  0  0  0  0
   33.2483   34.3913   56.6796 H   0  0  0  0  0  0  0  0  0  0  0  0
   33.7935   36.9461   61.5472 H   0  0  0  0  0  0  0  0  0  0  0  0
   32.2696   36.2020   63.3191 H   0  0  0  0  0  0  0  0  0  0  0  0
  1  2  1  0  0  0  0
  1 20  1  0  0  0  0
  1 21  1  0  0  0  0
  2 19  1  0  0  0  0
  2  3  2  0  0  0  0
  3  4  1  0  0  0  0
  4  5  1  0  0  0  0
  4 22  1  0  0  0  0
  5 19  1  0  0  0  0
  5  6  2  0  0  0  0
  6  7  1  0  0  0  0
  6 17  1  0  0  0  0
  7 12  2  0  0  0  0
  7  8  1  0  0  0  0
  8  9  2  0  0  0  0
  8 23  1  0  0  0  0
  9 10  1  0  0  0  0
  9 24  1  0  0  0  0
 10 11  2  0  0  0  0
 10 25  1  0  0  0  0
 11 12  1  0  0  0  0
 11 26  1  0  0  0  0
 12 13  1  0  0  0  0
 13 14  1  0  0  0  0
 13 15  1  0  0  0  0
 13 16  1  0  0  0  0
 17 18  1  0  0  0  0
 17 27  1  0  0  0  0
 18 19  1  0  0  0  0
 18 28  1  0  0  0  0
M  END
$$$$
