ZINC000000022641      none
 OpenBabel11202420153D

 39 40  0  0  0  0  0  0  0  0999 V2000
   31.4583   33.1762   60.9151 C   0  0  0  0  0  0  0  0  0  0  0  0
   31.8978   34.1078   62.0464 C   0  0  0  0  0  0  0  0  0  0  0  0
   31.7914   35.5395   61.5880 C   0  0  0  0  0  0  0  0  0  0  0  0
   32.2556   35.9017   60.3383 C   0  0  0  0  0  0  0  0  0  0  0  0
   32.1636   37.2160   59.9194 C   0  0  0  0  0  0  0  0  0  0  0  0
   31.6022   38.1709   60.7474 C   0  0  0  0  0  0  0  0  0  0  0  0
   31.1315   37.8140   61.9956 C   0  0  0  0  0  0  0  0  0  0  0  0
   30.5202   38.8552   62.8975 C   0  0  0  0  0  0  0  0  0  0  0  0
   31.2225   36.4947   62.4191 C   0  0  0  0  0  0  0  0  0  0  0  0
   30.7462   36.1293   63.6858 N   0  0  0  0  0  0  0  0  0  0  0  0
   29.4683   35.7311   63.8237 C   0  0  0  0  0  0  0  0  0  0  0  0
   28.7611   35.6124   62.8461 O   0  0  0  0  0  0  0  0  0  0  0  0
   28.9162   35.4323   65.1949 C   0  0  0  0  0  0  0  0  0  0  0  0
   30.0234   34.8290   66.0624 C   0  0  0  0  0  0  0  0  0  0  0  0
   31.2441   35.6250   65.9208 N   0  0  0  0  0  0  0  0  0  0  0  0
   32.1197   35.8164   67.0796 C   0  0  0  0  0  0  0  0  0  0  0  0
   31.6908   37.0720   67.8412 C   0  0  0  0  0  0  0  0  0  0  0  0
   31.5721   36.1823   64.7439 C   0  0  0  0  0  0  0  0  0  0  0  0
   33.0788   36.9800   64.5884 S   0  0  0  0  0  0  0  0  0  0  0  0
   31.4396   32.1483   61.2775 H   0  0  0  0  0  0  0  0  0  0  0  0
   30.4618   33.4604   60.5769 H   0  0  0  0  0  0  0  0  0  0  0  0
   32.1603   33.2562   60.0851 H   0  0  0  0  0  0  0  0  0  0  0  0
   32.9306   33.8888   62.3169 H   0  0  0  0  0  0  0  0  0  0  0  0
   31.2549   33.9551   62.9133 H   0  0  0  0  0  0  0  0  0  0  0  0
   32.6947   35.1582   59.6896 H   0  0  0  0  0  0  0  0  0  0  0  0
   32.5314   37.4977   58.9438 H   0  0  0  0  0  0  0  0  0  0  0  0
   31.5313   39.1969   60.4173 H   0  0  0  0  0  0  0  0  0  0  0  0
   31.2979   39.2996   63.5186 H   0  0  0  0  0  0  0  0  0  0  0  0
   30.0516   39.6307   62.2915 H   0  0  0  0  0  0  0  0  0  0  0  0
   29.7690   38.3883   63.5344 H   0  0  0  0  0  0  0  0  0  0  0  0
   28.0931   34.7228   65.1095 H   0  0  0  0  0  0  0  0  0  0  0  0
   28.5572   36.3545   65.6520 H   0  0  0  0  0  0  0  0  0  0  0  0
   30.2182   33.8054   65.7425 H   0  0  0  0  0  0  0  0  0  0  0  0
   29.7082   34.8296   67.1057 H   0  0  0  0  0  0  0  0  0  0  0  0
   32.0469   34.9499   67.7370 H   0  0  0  0  0  0  0  0  0  0  0  0
   33.1498   35.9304   66.7417 H   0  0  0  0  0  0  0  0  0  0  0  0
   31.7636   37.9384   67.1839 H   0  0  0  0  0  0  0  0  0  0  0  0
   30.6608   36.9579   68.1791 H   0  0  0  0  0  0  0  0  0  0  0  0
   32.3424   37.2143   68.7034 H   0  0  0  0  0  0  0  0  0  0  0  0
  1  2  1  0  0  0  0
  1 20  1  0  0  0  0
  1 21  1  0  0  0  0
  1 22  1  0  0  0  0
  2  3  1  0  0  0  0
  2 23  1  0  0  0  0
  2 24  1  0  0  0  0
  3  9  2  0  0  0  0
  3  4  1  0  0  0  0
  4  5  2  0  0  0  0
  4 25  1  0  0  0  0
  5  6  1  0  0  0  0
  5 26  1  0  0  0  0
  6  7  2  0  0  0  0
  6 27  1  0  0  0  0
  7  8  1  0  0  0  0
  7  9  1  0  0  0  0
  8 28  1  0  0  0  0
  8 29  1  0  0  0  0
  8 30  1  0  0  0  0
  9 10  1  0  0  0  0
 10 18  1  0  0  0  0
 10 11  1  0  0  0  0
 11 12  2  0  0  0  0
 11 13  1  0  0  0  0
 13 14  1  0  0  0  0
 13 31  1  0  0  0  0
 13 32  1  0  0  0  0
 14 15  1  0  0  0  0
 14 33  1  0  0  0  0
 14 34  1  0  0  0  0
 15 16  1  0  0  0  0
 15 18  1  0  0  0  0
 16 17  1  0  0  0  0
 16 35  1  0  0  0  0
 16 36  1  0  0  0  0
 17 37  1  0  0  0  0
 17 38  1  0  0  0  0
 17 39  1  0  0  0  0
 18 19  2  0  0  0  0
M  END
$$$$
