ZINC000000001801      none
 OpenBabel11202420153D

 36 38  0  0  0  0  0  0  0  0999 V2000
   32.3503   36.1795   62.5124 C   0  0  0  0  0  0  0  0  0  0  0  0
   31.4515   35.7625   61.3466 C   0  0  0  0  0  0  0  0  0  0  0  0
   30.0135   36.2026   61.6285 C   0  0  0  0  0  0  0  0  0  0  0  0
   31.9376   36.4163   60.0788 C   0  0  0  0  0  0  0  0  0  0  0  0
   32.0274   37.7517   59.8760 N   0  0  0  0  0  0  0  0  0  0  0  0
   31.7868   38.4277   60.5287 H   0  0  0  0  0  0  0  0  0  0  0  0
   32.5089   38.0161   58.6100 C   0  0  0  0  0  0  0  0  0  0  0  0
   32.7814   39.1943   57.9224 C   0  0  0  0  0  0  0  0  0  0  0  0
   33.2687   39.1419   56.6348 C   0  0  0  0  0  0  0  0  0  0  0  0
   33.4917   37.9222   56.0123 C   0  0  0  0  0  0  0  0  0  0  0  0
   33.2279   36.7444   56.6769 C   0  0  0  0  0  0  0  0  0  0  0  0
   32.7416   36.7827   57.9811 C   0  0  0  0  0  0  0  0  0  0  0  0
   32.3540   35.7507   58.9606 C   0  0  0  0  0  0  0  0  0  0  0  0
   32.4104   34.2962   58.7736 C   0  0  0  0  0  0  0  0  0  0  0  0
   32.0631   33.5533   59.6726 O   0  0  0  0  0  0  0  0  0  0  0  0
   32.8894   33.7333   57.4928 C   0  0  0  0  0  0  0  0  0  0  0  0
   34.2472   33.4466   57.3045 C   0  0  0  0  0  0  0  0  0  0  0  0
   34.6444   32.9260   56.0858 C   0  0  0  0  0  0  0  0  0  0  0  0
   33.6961   32.7027   55.1033 C   0  0  0  0  0  0  0  0  0  0  0  0
   32.4226   32.9780   55.3106 N   0  0  0  0  0  0  0  0  0  0  0  0
   31.9954   33.4744   56.4531 C   0  0  0  0  0  0  0  0  0  0  0  0
   31.9987   35.7067   63.4294 H   0  0  0  0  0  0  0  0  0  0  0  0
   33.3748   35.8661   62.3117 H   0  0  0  0  0  0  0  0  0  0  0  0
   32.3176   37.2631   62.6268 H   0  0  0  0  0  0  0  0  0  0  0  0
   31.4841   34.6791   61.2323 H   0  0  0  0  0  0  0  0  0  0  0  0
   29.3732   35.9054   60.7979 H   0  0  0  0  0  0  0  0  0  0  0  0
   29.6619   35.7297   62.5454 H   0  0  0  0  0  0  0  0  0  0  0  0
   29.9809   37.2860   61.7428 H   0  0  0  0  0  0  0  0  0  0  0  0
   32.6113   40.1491   58.3976 H   0  0  0  0  0  0  0  0  0  0  0  0
   33.4789   40.0592   56.1047 H   0  0  0  0  0  0  0  0  0  0  0  0
   33.8734   37.8959   55.0024 H   0  0  0  0  0  0  0  0  0  0  0  0
   33.4024   35.7961   56.1904 H   0  0  0  0  0  0  0  0  0  0  0  0
   34.9664   33.6311   58.0888 H   0  0  0  0  0  0  0  0  0  0  0  0
   35.6837   32.6960   55.9034 H   0  0  0  0  0  0  0  0  0  0  0  0
   34.0035   32.2961   54.1511 H   0  0  0  0  0  0  0  0  0  0  0  0
   30.9447   33.6871   56.5848 H   0  0  0  0  0  0  0  0  0  0  0  0
  1  2  1  0  0  0  0
  1 22  1  0  0  0  0
  1 23  1  0  0  0  0
  1 24  1  0  0  0  0
  2  3  1  0  0  0  0
  2  4  1  0  0  0  0
  2 25  1  0  0  0  0
  3 26  1  0  0  0  0
  3 27  1  0  0  0  0
  3 28  1  0  0  0  0
  4 13  2  0  0  0  0
  4  5  1  0  0  0  0
  5  6  1  0  0  0  0
  5  7  1  0  0  0  0
  7 12  2  0  0  0  0
  7  8  1  0  0  0  0
  8  9  2  0  0  0  0
  8 29  1  0  0  0  0
  9 10  1  0  0  0  0
  9 30  1  0  0  0  0
 10 11  2  0  0  0  0
 10 31  1  0  0  0  0
 11 12  1  0  0  0  0
 11 32  1  0  0  0  0
 12 13  1  0  0  0  0
 13 14  1  0  0  0  0
 14 15  2  0  0  0  0
 14 16  1  0  0  0  0
 16 21  2  0  0  0  0
 16 17  1  0  0  0  0
 17 18  2  0  0  0  0
 17 33  1  0  0  0  0
 18 19  1  0  0  0  0
 18 34  1  0  0  0  0
 19 20  2  0  0  0  0
 19 35  1  0  0  0  0
 20 21  1  0  0  0  0
 21 36  1  0  0  0  0
M  END
$$$$
