ZINC000000005201      none
 OpenBabel11202420153D

 36 37  0  0  1  0  0  0  0  0999 V2000
   32.4797   33.0933   61.1073 O   0  0  0  0  0  0  0  0  0  0  0  0
   32.0833   33.8998   60.2889 C   0  0  0  0  0  0  0  0  0  0  0  0
   31.6675   35.1176   60.6895 N   0  0  0  0  0  0  0  0  0  0  0  0
   31.6935   35.4693   62.1114 C   0  0  2  0  0  0  0  0  0  0  0  0
   32.0762   34.6284   62.6898 H   0  0  0  0  0  0  0  0  0  0  0  0
   30.2785   35.8153   62.5815 C   0  0  0  0  0  0  0  0  0  0  0  0
   30.1400   35.5949   64.0770 C   0  0  0  0  0  0  0  0  0  0  0  0
   30.9704   36.5486   64.9164 C   0  0  0  0  0  0  0  0  0  0  0  0
   32.4650   36.2868   64.7212 C   0  0  0  0  0  0  0  0  0  0  0  0
   32.9285   37.0517   63.5521 N   0  0  0  0  0  0  0  0  0  0  0  0
   32.5824   36.6773   62.3206 C   0  0  0  0  0  0  0  0  0  0  0  0
   32.9770   37.3101   61.3642 O   0  0  0  0  0  0  0  0  0  0  0  0
   32.0571   33.5448   58.8539 C   0  0  0  0  0  0  0  0  0  0  0  0
   30.9217   32.9518   58.2990 C   0  0  0  0  0  0  0  0  0  0  0  0
   30.9061   32.6179   56.9607 C   0  0  0  0  0  0  0  0  0  0  0  0
   32.0086   32.8796   56.1662 C   0  0  0  0  0  0  0  0  0  0  0  0
   33.1370   33.4666   56.7099 C   0  0  0  0  0  0  0  0  0  0  0  0
   34.3352   33.7422   55.8385 C   0  0  0  0  0  0  0  0  0  0  0  0
   34.0683   33.3205   54.5317 F   0  0  0  0  0  0  0  0  0  0  0  0
   34.6068   35.1146   55.8396 F   0  0  0  0  0  0  0  0  0  0  0  0
   35.4430   33.0474   56.3358 F   0  0  0  0  0  0  0  0  0  0  0  0
   33.1678   33.8007   58.0483 C   0  0  0  0  0  0  0  0  0  0  0  0
   31.3512   35.7612   60.0363 H   0  0  0  0  0  0  0  0  0  0  0  0
   30.0694   36.8600   62.3518 H   0  0  0  0  0  0  0  0  0  0  0  0
   29.5617   35.1825   62.0582 H   0  0  0  0  0  0  0  0  0  0  0  0
   29.0915   35.7135   64.3504 H   0  0  0  0  0  0  0  0  0  0  0  0
   30.4433   34.5738   64.3078 H   0  0  0  0  0  0  0  0  0  0  0  0
   30.7448   37.5738   64.6228 H   0  0  0  0  0  0  0  0  0  0  0  0
   30.7179   36.4132   65.9680 H   0  0  0  0  0  0  0  0  0  0  0  0
   33.0114   36.6076   65.6081 H   0  0  0  0  0  0  0  0  0  0  0  0
   32.6308   35.2230   64.5514 H   0  0  0  0  0  0  0  0  0  0  0  0
   33.4922   37.8309   63.6786 H   0  0  0  0  0  0  0  0  0  0  0  0
   30.0592   32.7508   58.9171 H   0  0  0  0  0  0  0  0  0  0  0  0
   30.0299   32.1553   56.5310 H   0  0  0  0  0  0  0  0  0  0  0  0
   31.9895   32.6203   55.1179 H   0  0  0  0  0  0  0  0  0  0  0  0
   34.0491   34.2597   58.4715 H   0  0  0  0  0  0  0  0  0  0  0  0
  1  2  2  0  0  0  0
  2  3  1  0  0  0  0
  2 13  1  0  0  0  0
  3  4  1  0  0  0  0
  3 23  1  0  0  0  0
  4  5  1  1  0  0  0
  4 11  1  0  0  0  0
  4  6  1  0  0  0  0
  6  7  1  0  0  0  0
  6 24  1  0  0  0  0
  6 25  1  0  0  0  0
  7  8  1  0  0  0  0
  7 26  1  0  0  0  0
  7 27  1  0  0  0  0
  8  9  1  0  0  0  0
  8 28  1  0  0  0  0
  8 29  1  0  0  0  0
  9 10  1  0  0  0  0
  9 30  1  0  0  0  0
  9 31  1  0  0  0  0
 10 11  1  0  0  0  0
 10 32  1  0  0  0  0
 11 12  2  0  0  0  0
 13 22  2  0  0  0  0
 13 14  1  0  0  0  0
 14 15  2  0  0  0  0
 14 33  1  0  0  0  0
 15 16  1  0  0  0  0
 15 34  1  0  0  0  0
 16 17  2  0  0  0  0
 16 35  1  0  0  0  0
 17 18  1  0  0  0  0
 17 22  1  0  0  0  0
 18 19  1  0  0  0  0
 18 20  1  0  0  0  0
 18 21  1  0  0  0  0
 22 36  1  0  0  0  0
M  END
$$$$
