ZINC000000034593      none
 OpenBabel11202420153D

 51 53  0  0  1  0  0  0  0  0999 V2000
   28.5139   36.9249   61.8979 C   0  0  0  0  0  0  0  0  0  0  0  0
   29.8230   37.6565   61.5949 C   0  0  0  0  0  0  0  0  0  0  0  0
   30.8483   37.1801   62.4689 O   0  0  0  0  0  0  0  0  0  0  0  0
   30.6430   37.3363   63.8042 C   0  0  0  0  0  0  0  0  0  0  0  0
   29.8909   38.3995   64.2724 C   0  0  0  0  0  0  0  0  0  0  0  0
   29.6788   38.5618   65.6327 C   0  0  0  0  0  0  0  0  0  0  0  0
   30.2167   37.6605   66.5275 C   0  0  0  0  0  0  0  0  0  0  0  0
   30.9726   36.5942   66.0629 C   0  0  0  0  0  0  0  0  0  0  0  0
   31.1881   36.4277   64.7064 C   0  0  0  0  0  0  0  0  0  0  0  0
   31.9301   35.3806   64.2565 O   0  0  0  0  0  0  0  0  0  0  0  0
   31.2857   34.4609   63.3729 C   0  0  0  0  0  0  0  0  0  0  0  0
   32.0322   34.4281   62.0378 C   0  0  0  0  0  0  0  0  0  0  0  0
   30.0070   37.7981   68.0127 C   0  0  1  0  0  0  0  0  0  0  0  0
   29.2362   37.0970   68.3328 H   0  0  0  0  0  0  0  0  0  0  0  0
   31.2950   37.4811   68.7280 C   0  0  0  0  0  0  0  0  0  0  0  0
   31.3446   36.4366   69.6386 C   0  0  0  0  0  0  0  0  0  0  0  0
   30.2318   35.6973   69.8868 O   0  0  0  0  0  0  0  0  0  0  0  0
   32.5302   36.1506   70.3004 C   0  0  0  0  0  0  0  0  0  0  0  0
   33.6637   36.8985   70.0442 C   0  0  0  0  0  0  0  0  0  0  0  0
   33.6168   37.9396   69.1373 C   0  0  0  0  0  0  0  0  0  0  0  0
   32.4318   38.2334   68.4769 C   0  0  0  0  0  0  0  0  0  0  0  0
   32.3864   39.2573   67.5846 O   0  0  0  0  0  0  0  0  0  0  0  0
   33.5954   39.9898   67.3755 C   0  0  0  0  0  0  0  0  0  0  0  0
   29.5899   39.1620   68.3502 N   0  3  0  0  0  0  0  0  0  0  0  0
   29.3564   39.2109   69.3307 H   0  0  0  0  0  0  0  0  0  0  0  0
   30.3416   39.8046   68.1497 H   0  0  0  0  0  0  0  0  0  0  0  0
   28.4103   39.5142   67.5450 C   0  0  0  0  0  0  0  0  0  0  0  0
   28.8557   39.7358   66.0990 C   0  0  0  0  0  0  0  0  0  0  0  0
   28.6524   35.8543   61.7461 H   0  0  0  0  0  0  0  0  0  0  0  0
   28.2249   37.1108   62.9324 H   0  0  0  0  0  0  0  0  0  0  0  0
   27.7319   37.2882   61.2313 H   0  0  0  0  0  0  0  0  0  0  0  0
   29.6846   38.7269   61.7467 H   0  0  0  0  0  0  0  0  0  0  0  0
   30.1120   37.4706   60.5605 H   0  0  0  0  0  0  0  0  0  0  0  0
   29.4665   39.1060   63.5744 H   0  0  0  0  0  0  0  0  0  0  0  0
   31.3949   35.8897   66.7641 H   0  0  0  0  0  0  0  0  0  0  0  0
   31.2917   33.4655   63.8170 H   0  0  0  0  0  0  0  0  0  0  0  0
   30.2563   34.7781   63.2059 H   0  0  0  0  0  0  0  0  0  0  0  0
   32.0262   35.4236   61.5937 H   0  0  0  0  0  0  0  0  0  0  0  0
   33.0616   34.1109   62.2047 H   0  0  0  0  0  0  0  0  0  0  0  0
   31.5405   33.7267   61.3637 H   0  0  0  0  0  0  0  0  0  0  0  0
   30.3644   34.9925   70.5355 H   0  0  0  0  0  0  0  0  0  0  0  0
   32.5681   35.3403   71.0133 H   0  0  0  0  0  0  0  0  0  0  0  0
   34.5867   36.6714   70.5570 H   0  0  0  0  0  0  0  0  0  0  0  0
   34.5028   38.5258   68.9423 H   0  0  0  0  0  0  0  0  0  0  0  0
   33.4212   40.7768   66.6417 H   0  0  0  0  0  0  0  0  0  0  0  0
   33.9175   40.4355   68.3167 H   0  0  0  0  0  0  0  0  0  0  0  0
   34.3696   39.3159   67.0089 H   0  0  0  0  0  0  0  0  0  0  0  0
   27.6848   38.7018   67.5840 H   0  0  0  0  0  0  0  0  0  0  0  0
   27.9595   40.4264   67.9358 H   0  0  0  0  0  0  0  0  0  0  0  0
   27.9778   39.8390   65.4613 H   0  0  0  0  0  0  0  0  0  0  0  0
   29.4554   40.6440   66.0398 H   0  0  0  0  0  0  0  0  0  0  0  0
  1  2  1  0  0  0  0
  1 29  1  0  0  0  0
  1 30  1  0  0  0  0
  1 31  1  0  0  0  0
  2  3  1  0  0  0  0
  2 32  1  0  0  0  0
  2 33  1  0  0  0  0
  3  4  1  0  0  0  0
  4  9  2  0  0  0  0
  4  5  1  0  0  0  0
  5  6  2  0  0  0  0
  5 34  1  0  0  0  0
  6 28  1  0  0  0  0
  6  7  1  0  0  0  0
  7  8  2  0  0  0  0
  7 13  1  0  0  0  0
  8  9  1  0  0  0  0
  8 35  1  0  0  0  0
  9 10  1  0  0  0  0
 10 11  1  0  0  0  0
 11 12  1  0  0  0  0
 11 36  1  0  0  0  0
 11 37  1  0  0  0  0
 12 38  1  0  0  0  0
 12 39  1  0  0  0  0
 12 40  1  0  0  0  0
 13 14  1  1  0  0  0
 13 15  1  0  0  0  0
 13 24  1  0  0  0  0
 15 21  2  0  0  0  0
 15 16  1  0  0  0  0
 16 17  1  0  0  0  0
 16 18  2  0  0  0  0
 17 41  1  0  0  0  0
 18 19  1  0  0  0  0
 18 42  1  0  0  0  0
 19 20  2  0  0  0  0
 19 43  1  0  0  0  0
 20 21  1  0  0  0  0
 20 44  1  0  0  0  0
 21 22  1  0  0  0  0
 22 23  1  0  0  0  0
 23 45  1  0  0  0  0
 23 46  1  0  0  0  0
 23 47  1  0  0  0  0
 24 25  1  0  0  0  0
 24 26  1  0  0  0  0
 24 27  1  0  0  0  0
 27 28  1  0  0  0  0
 27 48  1  0  0  0  0
 27 49  1  0  0  0  0
 28 50  1  0  0  0  0
 28 51  1  0  0  0  0
M  CHG  1  24   1
M  END
$$$$
