ZINC000000002762      none
 OpenBabel11202420153D

 25 27  0  0  1  0  0  0  0  0999 V2000
   27.8961   37.0878   61.7012 O   0  0  0  0  0  0  0  0  0  0  0  0
   28.9677   36.6190   61.3709 C   0  0  0  0  0  0  0  0  0  0  0  0
   29.9806   36.4041   62.2203 N   0  0  0  0  0  0  0  0  0  0  0  0
   31.0525   35.8764   61.5913 C   0  0  0  0  0  0  0  0  0  0  0  0
   32.1172   35.5714   62.0843 O   0  0  0  0  0  0  0  0  0  0  0  0
   30.6438   35.7463   60.1456 C   0  0  2  0  0  0  0  0  0  0  0  0
   29.2688   36.2514   60.1097 N   0  0  0  0  0  0  0  0  0  0  0  0
   30.6155   34.3226   59.8017 N   0  0  0  0  0  0  0  0  0  0  0  0
   31.3611   33.8945   58.7621 C   0  0  0  0  0  0  0  0  0  0  0  0
   31.3369   32.7131   58.4755 O   0  0  0  0  0  0  0  0  0  0  0  0
   32.1273   34.7161   58.0327 N   0  0  0  0  0  0  0  0  0  0  0  0
   32.2336   36.0854   58.2766 C   0  0  0  0  0  0  0  0  0  0  0  0
   33.0476   36.8890   57.4908 C   0  0  0  0  0  0  0  0  0  0  0  0
   33.1375   38.2422   57.7526 C   0  0  0  0  0  0  0  0  0  0  0  0
   32.4201   38.8013   58.7946 C   0  0  0  0  0  0  0  0  0  0  0  0
   31.6053   38.0047   59.5812 C   0  0  0  0  0  0  0  0  0  0  0  0
   31.5125   36.6571   59.3229 C   0  0  0  0  0  0  0  0  0  0  0  0
   29.9483   36.6033   63.1691 H   0  0  0  0  0  0  0  0  0  0  0  0
   28.6911   36.3114   59.3328 H   0  0  0  0  0  0  0  0  0  0  0  0
   30.0719   33.7009   60.3105 H   0  0  0  0  0  0  0  0  0  0  0  0
   32.6349   34.3392   57.2969 H   0  0  0  0  0  0  0  0  0  0  0  0
   33.6095   36.4572   56.6758 H   0  0  0  0  0  0  0  0  0  0  0  0
   33.7714   38.8669   57.1408 H   0  0  0  0  0  0  0  0  0  0  0  0
   32.4954   39.8599   58.9947 H   0  0  0  0  0  0  0  0  0  0  0  0
   31.0446   38.4402   60.3950 H   0  0  0  0  0  0  0  0  0  0  0  0
  1  2  2  0  0  0  0
  2  7  1  0  0  0  0
  2  3  1  0  0  0  0
  3  4  1  0  0  0  0
  3 18  1  0  0  0  0
  4  5  2  0  0  0  0
  6  4  1  1  0  0  0
  6 17  1  0  0  0  0
  6  7  1  0  0  0  0
  6  8  1  0  0  0  0
  7 19  1  0  0  0  0
  8  9  1  0  0  0  0
  8 20  1  0  0  0  0
  9 10  2  0  0  0  0
  9 11  1  0  0  0  0
 11 12  1  0  0  0  0
 11 21  1  0  0  0  0
 12 17  2  0  0  0  0
 12 13  1  0  0  0  0
 13 14  2  0  0  0  0
 13 22  1  0  0  0  0
 14 15  1  0  0  0  0
 14 23  1  0  0  0  0
 15 16  2  0  0  0  0
 15 24  1  0  0  0  0
 16 17  1  0  0  0  0
 16 25  1  0  0  0  0
M  END
$$$$
