ZINC000000033134      none
 OpenBabel11202420153D

 27 29  0  0  0  0  0  0  0  0999 V2000
   32.7968   35.5441   58.4237 O   0  0  0  0  0  0  0  0  0  0  0  0
   32.9939   36.6931   58.0792 C   0  0  0  0  0  0  0  0  0  0  0  0
   32.8219   37.8922   58.9154 C   0  0  0  0  0  0  0  0  0  0  0  0
   32.4066   37.9240   60.2361 C   0  0  0  0  0  0  0  0  0  0  0  0
   32.2396   36.7232   60.9502 C   0  0  0  0  0  0  0  0  0  0  0  0
   32.4011   36.5556   62.3155 C   0  0  0  0  0  0  0  0  0  0  0  0
   32.1359   35.2076   62.5845 C   0  0  0  0  0  0  0  0  0  0  0  0
   31.8302   34.6153   61.4058 C   0  0  0  0  0  0  0  0  0  0  0  0
   31.4818   33.1876   61.2276 N   0  0  0  0  0  0  0  0  0  0  0  0
   31.4541   32.4425   62.1907 O   0  0  0  0  0  0  0  0  0  0  0  0
   31.2228   32.7580   60.1176 O   0  0  0  0  0  0  0  0  0  0  0  0
   31.8876   35.5284   60.4284 O   0  0  0  0  0  0  0  0  0  0  0  0
   33.1744   39.0509   58.0790 C   0  0  0  0  0  0  0  0  0  0  0  0
   33.1542   40.2167   58.4234 O   0  0  0  0  0  0  0  0  0  0  0  0
   33.5587   38.5402   56.7400 C   0  0  0  0  0  0  0  0  0  0  0  0
   33.9734   39.1982   55.5873 C   0  0  0  0  0  0  0  0  0  0  0  0
   34.2790   38.4732   54.4473 C   0  0  0  0  0  0  0  0  0  0  0  0
   34.1738   37.0955   54.4475 C   0  0  0  0  0  0  0  0  0  0  0  0
   33.7616   36.4256   55.5876 C   0  0  0  0  0  0  0  0  0  0  0  0
   33.4521   37.1391   56.7402 C   0  0  0  0  0  0  0  0  0  0  0  0
   32.2108   38.8706   60.7178 H   0  0  0  0  0  0  0  0  0  0  0  0
   32.6774   37.3153   63.0317 H   0  0  0  0  0  0  0  0  0  0  0  0
   32.1690   34.7290   63.5522 H   0  0  0  0  0  0  0  0  0  0  0  0
   34.0617   40.2745   55.5823 H   0  0  0  0  0  0  0  0  0  0  0  0
   34.6008   38.9873   53.5537 H   0  0  0  0  0  0  0  0  0  0  0  0
   34.4137   36.5382   53.5540 H   0  0  0  0  0  0  0  0  0  0  0  0
   33.6809   35.3486   55.5815 H   0  0  0  0  0  0  0  0  0  0  0  0
  1  2  2  0  0  0  0
  2 20  1  0  0  0  0
  2  3  1  0  0  0  0
  3  4  2  0  0  0  0
  3 13  1  0  0  0  0
  4  5  1  0  0  0  0
  4 21  1  0  0  0  0
  5 12  1  0  0  0  0
  5  6  2  0  0  0  0
  6  7  1  0  0  0  0
  6 22  1  0  0  0  0
  7  8  2  0  0  0  0
  7 23  1  0  0  0  0
  8  9  1  0  0  0  0
  8 12  1  0  0  0  0
  9 10  2  0  0  0  0
  9 11  2  0  0  0  0
 13 14  2  0  0  0  0
 13 15  1  0  0  0  0
 15 20  2  0  0  0  0
 15 16  1  0  0  0  0
 16 17  2  0  0  0  0
 16 24  1  0  0  0  0
 17 18  1  0  0  0  0
 17 25  1  0  0  0  0
 18 19  2  0  0  0  0
 18 26  1  0  0  0  0
 19 20  1  0  0  0  0
 19 27  1  0  0  0  0
M  END
$$$$
