ZINC000000011162      none
 OpenBabel11202420153D

 29 31  0  0  0  0  0  0  0  0999 V2000
   29.2495   36.9781   62.6297 C   0  0  0  0  0  0  0  0  0  0  0  0
   30.3279   36.6985   63.4552 C   0  0  0  0  0  0  0  0  0  0  0  0
   31.2518   35.7534   63.0366 C   0  0  0  0  0  0  0  0  0  0  0  0
   31.0684   35.1256   61.8189 C   0  0  0  0  0  0  0  0  0  0  0  0
   32.0660   34.0961   61.3540 C   0  0  0  0  0  0  0  0  0  0  0  0
   31.5627   33.4552   59.7378 S   0  0  0  0  0  0  0  0  0  0  0  0
   32.1441   34.7542   58.6989 C   0  0  0  0  0  0  0  0  0  0  0  0
   32.5520   34.4669   57.3834 C   0  0  0  0  0  0  0  0  0  0  0  0
   32.9813   35.4214   56.5945 N   0  0  0  0  0  0  0  0  0  0  0  0
   33.0451   36.6813   57.0452 C   0  0  0  0  0  0  0  0  0  0  0  0
   33.5073   37.7210   56.2211 C   0  0  0  0  0  0  0  0  0  0  0  0
   33.5624   38.9925   56.7047 C   0  0  0  0  0  0  0  0  0  0  0  0
   33.1654   39.2809   58.0087 C   0  0  0  0  0  0  0  0  0  0  0  0
   32.7115   38.2989   58.8351 C   0  0  0  0  0  0  0  0  0  0  0  0
   32.6410   36.9745   58.3708 C   0  0  0  0  0  0  0  0  0  0  0  0
   32.1988   35.9892   59.1624 N   0  0  0  0  0  0  0  0  0  0  0  0
   30.0304   35.4167   61.0595 N   0  0  0  0  0  0  0  0  0  0  0  0
   29.1290   36.3059   61.4283 C   0  0  0  0  0  0  0  0  0  0  0  0
   28.5106   37.7087   62.9240 H   0  0  0  0  0  0  0  0  0  0  0  0
   30.4454   37.2048   64.4020 H   0  0  0  0  0  0  0  0  0  0  0  0
   32.1038   35.5105   63.6543 H   0  0  0  0  0  0  0  0  0  0  0  0
   33.0510   34.5557   61.2720 H   0  0  0  0  0  0  0  0  0  0  0  0
   32.1056   33.2778   62.0731 H   0  0  0  0  0  0  0  0  0  0  0  0
   32.5062   33.4514   57.0188 H   0  0  0  0  0  0  0  0  0  0  0  0
   33.8183   37.5125   55.2082 H   0  0  0  0  0  0  0  0  0  0  0  0
   33.9186   39.7891   56.0684 H   0  0  0  0  0  0  0  0  0  0  0  0
   33.2183   40.2976   58.3688 H   0  0  0  0  0  0  0  0  0  0  0  0
   32.4063   38.5369   59.8434 H   0  0  0  0  0  0  0  0  0  0  0  0
   28.2893   36.5145   60.7819 H   0  0  0  0  0  0  0  0  0  0  0  0
  1 18  2  0  0  0  0
  1  2  1  0  0  0  0
  1 19  1  0  0  0  0
  2  3  2  0  0  0  0
  2 20  1  0  0  0  0
  3  4  1  0  0  0  0
  3 21  1  0  0  0  0
  4  5  1  0  0  0  0
  4 17  2  0  0  0  0
  5  6  1  0  0  0  0
  5 22  1  0  0  0  0
  5 23  1  0  0  0  0
  6  7  1  0  0  0  0
  7 16  2  0  0  0  0
  7  8  1  0  0  0  0
  8  9  2  0  0  0  0
  8 24  1  0  0  0  0
  9 10  1  0  0  0  0
 10 15  2  0  0  0  0
 10 11  1  0  0  0  0
 11 12  2  0  0  0  0
 11 25  1  0  0  0  0
 12 13  1  0  0  0  0
 12 26  1  0  0  0  0
 13 14  2  0  0  0  0
 13 27  1  0  0  0  0
 14 15  1  0  0  0  0
 14 28  1  0  0  0  0
 15 16  1  0  0  0  0
 17 18  1  0  0  0  0
 18 29  1  0  0  0  0
M  END
$$$$
