ZINC000000035613      none
 OpenBabel11202420153D

 31 33  0  0  0  0  0  0  0  0999 V2000
   33.8345   36.1785   53.0951 C   0  0  0  0  0  0  0  0  0  0  0  0
   33.3830   36.3491   54.5470 C   0  0  0  0  0  0  0  0  0  0  0  0
   33.8983   37.9795   55.1528 S   0  0  0  0  0  0  0  0  0  0  0  0
   33.3012   37.9932   56.8104 C   0  0  0  0  0  0  0  0  0  0  0  0
   32.6527   37.0317   57.3999 N   0  0  0  0  0  0  0  0  0  0  0  0
   32.3031   37.2086   58.5985 N   0  0  0  0  0  0  0  0  0  0  0  0
   32.6060   38.3417   59.1568 C   0  0  0  0  0  0  0  0  0  0  0  0
   32.3031   38.7197   60.4616 N   0  0  0  0  0  0  0  0  0  0  0  0
   31.6345   37.8739   61.2703 C   0  0  0  0  0  0  0  0  0  0  0  0
   31.2959   36.7803   60.8598 O   0  0  0  0  0  0  0  0  0  0  0  0
   31.3187   38.2722   62.6556 C   0  0  0  0  0  0  0  0  0  0  0  0
   30.1201   38.9320   62.9386 C   0  0  0  0  0  0  0  0  0  0  0  0
   29.8242   39.2977   64.2334 C   0  0  0  0  0  0  0  0  0  0  0  0
   30.7194   39.0236   65.2590 C   0  0  0  0  0  0  0  0  0  0  0  0
   31.9208   38.3702   64.9821 C   0  0  0  0  0  0  0  0  0  0  0  0
   32.2202   37.9957   63.6868 C   0  0  0  0  0  0  0  0  0  0  0  0
   32.6145   38.2218   66.1488 O   0  0  0  0  0  0  0  0  0  0  0  0
   32.0159   39.1506   67.0718 C   0  0  0  0  0  0  0  0  0  0  0  0
   30.6633   39.2823   66.5967 O   0  0  0  0  0  0  0  0  0  0  0  0
   33.4767   39.3134   57.9685 S   0  0  0  0  0  0  0  0  0  0  0  0
   33.3801   36.9551   52.4796 H   0  0  0  0  0  0  0  0  0  0  0  0
   34.9200   36.2601   53.0401 H   0  0  0  0  0  0  0  0  0  0  0  0
   33.5248   35.1988   52.7310 H   0  0  0  0  0  0  0  0  0  0  0  0
   33.8373   35.5726   55.1623 H   0  0  0  0  0  0  0  0  0  0  0  0
   32.2975   36.2676   54.6018 H   0  0  0  0  0  0  0  0  0  0  0  0
   32.5732   39.5920   60.7889 H   0  0  0  0  0  0  0  0  0  0  0  0
   29.4234   39.1511   62.1429 H   0  0  0  0  0  0  0  0  0  0  0  0
   28.8950   39.8033   64.4509 H   0  0  0  0  0  0  0  0  0  0  0  0
   33.1500   37.4901   63.4713 H   0  0  0  0  0  0  0  0  0  0  0  0
   32.5296   40.1114   67.0356 H   0  0  0  0  0  0  0  0  0  0  0  0
   32.0287   38.7464   68.0840 H   0  0  0  0  0  0  0  0  0  0  0  0
  1  2  1  0  0  0  0
  1 21  1  0  0  0  0
  1 22  1  0  0  0  0
  1 23  1  0  0  0  0
  2  3  1  0  0  0  0
  2 24  1  0  0  0  0
  2 25  1  0  0  0  0
  3  4  1  0  0  0  0
  4 20  1  0  0  0  0
  4  5  2  0  0  0  0
  5  6  1  0  0  0  0
  6  7  2  0  0  0  0
  7  8  1  0  0  0  0
  7 20  1  0  0  0  0
  8  9  1  0  0  0  0
  8 26  1  0  0  0  0
  9 10  2  0  0  0  0
  9 11  1  0  0  0  0
 11 16  2  0  0  0  0
 11 12  1  0  0  0  0
 12 13  2  0  0  0  0
 12 27  1  0  0  0  0
 13 14  1  0  0  0  0
 13 28  1  0  0  0  0
 14 19  1  0  0  0  0
 14 15  2  0  0  0  0
 15 16  1  0  0  0  0
 15 17  1  0  0  0  0
 16 29  1  0  0  0  0
 17 18  1  0  0  0  0
 18 19  1  0  0  0  0
 18 30  1  0  0  0  0
 18 31  1  0  0  0  0
M  END
$$$$
