ZINC000000045190      none
 OpenBabel11202420153D

 42 42  0  0  0  0  0  0  0  0999 V2000
   28.6104   39.8939   67.6804 C   0  0  0  0  0  0  0  0  0  0  0  0
   29.9506   40.1658   66.9941 C   0  0  0  0  0  0  0  0  0  0  0  0
   30.4687   38.9291   66.4369 O   0  0  0  0  0  0  0  0  0  0  0  0
   30.1135   38.6322   65.1706 C   0  0  0  0  0  0  0  0  0  0  0  0
   29.3902   39.3865   64.5493 O   0  0  0  0  0  0  0  0  0  0  0  0
   30.6000   37.3980   64.5422 C   0  0  0  0  0  0  0  0  0  0  0  0
   30.8857   36.2516   65.2569 C   0  0  0  0  0  0  0  0  0  0  0  0
   30.7524   36.1251   66.6245 N   0  0  0  0  0  0  0  0  0  0  0  0
   30.4590   34.9259   67.1649 C   0  0  0  0  0  0  0  0  0  0  0  0
   30.3120   33.9580   66.4493 O   0  0  0  0  0  0  0  0  0  0  0  0
   30.3074   34.7890   68.6580 C   0  0  0  0  0  0  0  0  0  0  0  0
   29.1763   35.6989   69.1413 C   0  0  0  0  0  0  0  0  0  0  0  0
   29.9772   33.3362   69.0061 C   0  0  0  0  0  0  0  0  0  0  0  0
   31.6147   35.1930   69.3426 C   0  0  0  0  0  0  0  0  0  0  0  0
   31.4192   35.0114   64.2148 S   0  0  0  0  0  0  0  0  0  0  0  0
   31.2644   36.0463   62.8040 C   0  0  0  0  0  0  0  0  0  0  0  0
   31.5575   35.6590   61.4800 C   0  0  0  0  0  0  0  0  0  0  0  0
   30.4810   35.7026   60.4263 C   0  0  0  0  0  0  0  0  0  0  0  0
   32.6778   35.2903   61.1889 O   0  0  0  0  0  0  0  0  0  0  0  0
   30.8180   37.2799   63.1786 C   0  0  0  0  0  0  0  0  0  0  0  0
   30.5784   38.4032   62.2030 C   0  0  0  0  0  0  0  0  0  0  0  0
   28.7526   39.1667   68.4799 H   0  0  0  0  0  0  0  0  0  0  0  0
   28.2213   40.8223   68.0986 H   0  0  0  0  0  0  0  0  0  0  0  0
   27.9026   39.4989   66.9517 H   0  0  0  0  0  0  0  0  0  0  0  0
   30.6583   40.5607   67.7229 H   0  0  0  0  0  0  0  0  0  0  0  0
   29.8084   40.8930   66.1947 H   0  0  0  0  0  0  0  0  0  0  0  0
   30.8701   36.8994   67.1969 H   0  0  0  0  0  0  0  0  0  0  0  0
   28.2450   35.4112   68.6536 H   0  0  0  0  0  0  0  0  0  0  0  0
   29.0666   35.5998   70.2212 H   0  0  0  0  0  0  0  0  0  0  0  0
   29.4115   36.7339   68.8934 H   0  0  0  0  0  0  0  0  0  0  0  0
   30.7829   32.6879   68.6617 H   0  0  0  0  0  0  0  0  0  0  0  0
   29.8674   33.2372   70.0860 H   0  0  0  0  0  0  0  0  0  0  0  0
   29.0458   33.0484   68.5183 H   0  0  0  0  0  0  0  0  0  0  0  0
   31.8499   36.2279   69.0946 H   0  0  0  0  0  0  0  0  0  0  0  0
   31.5050   35.0940   70.4225 H   0  0  0  0  0  0  0  0  0  0  0  0
   32.4204   34.5446   68.9984 H   0  0  0  0  0  0  0  0  0  0  0  0
   30.4815   36.6814   59.9467 H   0  0  0  0  0  0  0  0  0  0  0  0
   30.6721   34.9320   59.6796 H   0  0  0  0  0  0  0  0  0  0  0  0
   29.5108   35.5260   60.8906 H   0  0  0  0  0  0  0  0  0  0  0  0
   29.5499   38.3598   61.8444 H   0  0  0  0  0  0  0  0  0  0  0  0
   30.7501   39.3584   62.6993 H   0  0  0  0  0  0  0  0  0  0  0  0
   31.2617   38.3040   61.3596 H   0  0  0  0  0  0  0  0  0  0  0  0
  1  2  1  0  0  0  0
  1 22  1  0  0  0  0
  1 23  1  0  0  0  0
  1 24  1  0  0  0  0
  2  3  1  0  0  0  0
  2 25  1  0  0  0  0
  2 26  1  0  0  0  0
  3  4  1  0  0  0  0
  4  5  2  0  0  0  0
  4  6  1  0  0  0  0
  6 20  1  0  0  0  0
  6  7  2  0  0  0  0
  7  8  1  0  0  0  0
  7 15  1  0  0  0  0
  8  9  1  0  0  0  0
  8 27  1  0  0  0  0
  9 10  2  0  0  0  0
  9 11  1  0  0  0  0
 11 12  1  0  0  0  0
 11 13  1  0  0  0  0
 11 14  1  0  0  0  0
 12 28  1  0  0  0  0
 12 29  1  0  0  0  0
 12 30  1  0  0  0  0
 13 31  1  0  0  0  0
 13 32  1  0  0  0  0
 13 33  1  0  0  0  0
 14 34  1  0  0  0  0
 14 35  1  0  0  0  0
 14 36  1  0  0  0  0
 15 16  1  0  0  0  0
 16 17  1  0  0  0  0
 16 20  2  0  0  0  0
 17 18  1  0  0  0  0
 17 19  2  0  0  0  0
 18 37  1  0  0  0  0
 18 38  1  0  0  0  0
 18 39  1  0  0  0  0
 20 21  1  0  0  0  0
 21 40  1  0  0  0  0
 21 41  1  0  0  0  0
 21 42  1  0  0  0  0
M  END
$$$$
