ZINC000000001585      none
 OpenBabel11202420153D

 21 21  0  0  0  0  0  0  0  0999 V2000
   32.3079   37.2094   62.3292 C   0  0  0  0  0  0  0  0  0  0  0  0
   31.9564   37.1267   60.8424 C   0  0  0  0  0  0  0  0  0  0  0  0
   30.4354   37.1050   60.6785 C   0  0  0  0  0  0  0  0  0  0  0  0
   32.5062   38.2918   60.1450 N   0  0  0  0  0  0  0  0  0  0  0  0
   32.8828   38.1892   58.8171 C   0  0  0  0  0  0  0  0  0  0  0  0
   33.3783   39.2526   58.2014 N   0  0  0  0  0  0  0  0  0  0  0  0
   33.7522   39.1872   56.9343 C   0  0  0  0  0  0  0  0  0  0  0  0
   33.6105   37.9911   56.2485 C   0  0  0  0  0  0  0  0  0  0  0  0
   33.0839   36.8998   56.9214 C   0  0  0  0  0  0  0  0  0  0  0  0
   32.7344   37.0314   58.1904 N   0  0  0  0  0  0  0  0  0  0  0  0
   31.8838   38.1200   62.7526 H   0  0  0  0  0  0  0  0  0  0  0  0
   31.8988   36.3427   62.8481 H   0  0  0  0  0  0  0  0  0  0  0  0
   33.3914   37.2249   62.4460 H   0  0  0  0  0  0  0  0  0  0  0  0
   32.3804   36.2161   60.4190 H   0  0  0  0  0  0  0  0  0  0  0  0
   30.1848   37.0460   59.6192 H   0  0  0  0  0  0  0  0  0  0  0  0
   30.0262   36.2381   61.1973 H   0  0  0  0  0  0  0  0  0  0  0  0
   30.0113   38.0154   61.1019 H   0  0  0  0  0  0  0  0  0  0  0  0
   32.6063   39.1350   60.6138 H   0  0  0  0  0  0  0  0  0  0  0  0
   34.1595   40.0562   56.4390 H   0  0  0  0  0  0  0  0  0  0  0  0
   33.9044   37.9111   55.2123 H   0  0  0  0  0  0  0  0  0  0  0  0
   32.9609   35.9533   56.4159 H   0  0  0  0  0  0  0  0  0  0  0  0
  1  2  1  0  0  0  0
  1 11  1  0  0  0  0
  1 12  1  0  0  0  0
  1 13  1  0  0  0  0
  2  3  1  0  0  0  0
  2  4  1  0  0  0  0
  2 14  1  0  0  0  0
  3 15  1  0  0  0  0
  3 16  1  0  0  0  0
  3 17  1  0  0  0  0
  4  5  1  0  0  0  0
  4 18  1  0  0  0  0
  5 10  2  0  0  0  0
  5  6  1  0  0  0  0
  6  7  2  0  0  0  0
  7  8  1  0  0  0  0
  7 19  1  0  0  0  0
  8  9  2  0  0  0  0
  8 20  1  0  0  0  0
  9 10  1  0  0  0  0
  9 21  1  0  0  0  0
M  END
$$$$
