ZINC000000006693      none
 OpenBabel11202420153D

 37 40  0  0  0  0  0  0  0  0999 V2000
   30.8907   33.8902   59.3478 C   0  0  0  0  0  0  0  0  0  0  0  0
   31.2391   35.3116   59.4144 N   0  0  0  0  0  0  0  0  0  0  0  0
   32.0705   35.9629   58.5241 C   0  0  0  0  0  0  0  0  0  0  0  0
   32.7713   35.5364   57.4001 C   0  0  0  0  0  0  0  0  0  0  0  0
   33.5406   36.4325   56.6889 C   0  0  0  0  0  0  0  0  0  0  0  0
   33.6250   37.7598   57.0814 C   0  0  0  0  0  0  0  0  0  0  0  0
   32.9373   38.1998   58.1931 C   0  0  0  0  0  0  0  0  0  0  0  0
   32.1580   37.3035   58.9173 C   0  0  0  0  0  0  0  0  0  0  0  0
   31.3068   37.4444   60.1286 C   0  0  0  0  0  0  0  0  0  0  0  0
   30.9072   38.4069   61.0545 C   0  0  0  0  0  0  0  0  0  0  0  0
   30.0740   37.9596   62.0252 C   0  0  0  0  0  0  0  0  0  0  0  0
   29.5204   38.7840   63.0995 C   0  0  0  0  0  0  0  0  0  0  0  0
   28.4592   39.3591   62.9404 O   0  0  0  0  0  0  0  0  0  0  0  0
   30.1853   38.9068   64.2655 N   0  0  0  0  0  0  0  0  0  0  0  0
   29.6515   39.7354   65.3582 C   0  0  0  0  0  0  0  0  0  0  0  0
   29.6616   38.8953   66.6454 C   0  0  0  0  0  0  0  0  0  0  0  0
   30.9698   38.3534   66.8412 O   0  0  0  0  0  0  0  0  0  0  0  0
   31.3936   37.4594   65.8092 C   0  0  0  0  0  0  0  0  0  0  0  0
   31.4693   38.2214   64.4811 C   0  0  0  0  0  0  0  0  0  0  0  0
   29.7554   36.2473   61.8063 S   0  0  0  0  0  0  0  0  0  0  0  0
   30.7833   36.1912   60.3759 C   0  0  0  0  0  0  0  0  0  0  0  0
   29.9946   33.7638   58.7401 H   0  0  0  0  0  0  0  0  0  0  0  0
   31.7147   33.3347   58.9000 H   0  0  0  0  0  0  0  0  0  0  0  0
   30.7035   33.5144   60.3537 H   0  0  0  0  0  0  0  0  0  0  0  0
   32.7126   34.5049   57.0852 H   0  0  0  0  0  0  0  0  0  0  0  0
   34.0833   36.0975   55.8173 H   0  0  0  0  0  0  0  0  0  0  0  0
   34.2313   38.4511   56.5149 H   0  0  0  0  0  0  0  0  0  0  0  0
   33.0032   39.2334   58.4991 H   0  0  0  0  0  0  0  0  0  0  0  0
   31.2338   39.4348   60.9995 H   0  0  0  0  0  0  0  0  0  0  0  0
   30.2765   40.6189   65.4880 H   0  0  0  0  0  0  0  0  0  0  0  0
   28.6308   40.0384   65.1242 H   0  0  0  0  0  0  0  0  0  0  0  0
   28.9401   38.0829   66.5587 H   0  0  0  0  0  0  0  0  0  0  0  0
   29.3983   39.5270   67.4938 H   0  0  0  0  0  0  0  0  0  0  0  0
   30.6784   36.6418   65.7194 H   0  0  0  0  0  0  0  0  0  0  0  0
   32.3767   37.0580   66.0553 H   0  0  0  0  0  0  0  0  0  0  0  0
   31.6532   37.5213   63.6663 H   0  0  0  0  0  0  0  0  0  0  0  0
   32.2745   38.9550   64.5237 H   0  0  0  0  0  0  0  0  0  0  0  0
  1  2  1  0  0  0  0
  1 22  1  0  0  0  0
  1 23  1  0  0  0  0
  1 24  1  0  0  0  0
  2 21  1  0  0  0  0
  2  3  1  0  0  0  0
  3  8  2  0  0  0  0
  3  4  1  0  0  0  0
  4  5  2  0  0  0  0
  4 25  1  0  0  0  0
  5  6  1  0  0  0  0
  5 26  1  0  0  0  0
  6  7  2  0  0  0  0
  6 27  1  0  0  0  0
  7  8  1  0  0  0  0
  7 28  1  0  0  0  0
  8  9  1  0  0  0  0
  9 21  2  0  0  0  0
  9 10  1  0  0  0  0
 10 11  2  0  0  0  0
 10 29  1  0  0  0  0
 11 12  1  0  0  0  0
 11 20  1  0  0  0  0
 12 13  2  0  0  0  0
 12 14  1  0  0  0  0
 14 19  1  0  0  0  0
 14 15  1  0  0  0  0
 15 16  1  0  0  0  0
 15 30  1  0  0  0  0
 15 31  1  0  0  0  0
 16 17  1  0  0  0  0
 16 32  1  0  0  0  0
 16 33  1  0  0  0  0
 17 18  1  0  0  0  0
 18 19  1  0  0  0  0
 18 34  1  0  0  0  0
 18 35  1  0  0  0  0
 19 36  1  0  0  0  0
 19 37  1  0  0  0  0
 20 21  1  0  0  0  0
M  END
$$$$
