ZINC000000037358      none
 OpenBabel11202420153D

 49 51  0  0  0  0  0  0  0  0999 V2000
   31.7333   34.7437   59.8622 C   0  0  0  0  0  0  0  0  0  0  0  0
   32.2852   35.8502   59.0007 C   0  0  0  0  0  0  0  0  0  0  0  0
   32.6393   35.5950   57.6904 C   0  0  0  0  0  0  0  0  0  0  0  0
   33.1398   36.6113   56.8975 C   0  0  0  0  0  0  0  0  0  0  0  0
   33.2992   37.8829   57.4170 C   0  0  0  0  0  0  0  0  0  0  0  0
   32.9524   38.1432   58.7282 C   0  0  0  0  0  0  0  0  0  0  0  0
   33.1263   39.5293   59.2936 C   0  0  0  0  0  0  0  0  0  0  0  0
   32.4436   37.1263   59.5253 C   0  0  0  0  0  0  0  0  0  0  0  0
   32.0907   37.3869   60.8541 N   0  0  0  0  0  0  0  0  0  0  0  0
   30.8217   37.1934   61.2647 C   0  0  0  0  0  0  0  0  0  0  0  0
   29.9855   36.7936   60.4824 O   0  0  0  0  0  0  0  0  0  0  0  0
   30.4418   37.4741   62.6958 C   0  0  0  0  0  0  0  0  0  0  0  0
   29.9349   36.2476   63.3161 N   0  0  0  0  0  0  0  0  0  0  0  0
   30.7234   35.1574   63.3964 C   0  0  0  0  0  0  0  0  0  0  0  0
   31.8558   35.1920   62.9539 O   0  0  0  0  0  0  0  0  0  0  0  0
   30.2143   33.9253   64.0196 C   0  0  0  0  0  0  0  0  0  0  0  0
   30.5744   32.6261   63.7068 C   0  0  0  0  0  0  0  0  0  0  0  0
   29.8265   31.8178   64.5660 C   0  0  0  0  0  0  0  0  0  0  0  0
   29.0867   32.5998   65.3101 N   0  0  0  0  0  0  0  0  0  0  0  0
   29.2870   33.8345   65.0186 N   0  0  0  0  0  0  0  0  0  0  0  0
   28.8473   34.5876   65.4432 H   0  0  0  0  0  0  0  0  0  0  0  0
   29.3557   38.5511   62.7332 C   0  0  0  0  0  0  0  0  0  0  0  0
   28.9700   38.8361   64.1862 C   0  0  0  0  0  0  0  0  0  0  0  0
   30.1998   39.3251   64.9537 C   0  0  0  0  0  0  0  0  0  0  0  0
   31.2860   38.2483   64.9162 C   0  0  0  0  0  0  0  0  0  0  0  0
   31.6718   37.9633   63.4634 C   0  0  0  0  0  0  0  0  0  0  0  0
   30.6452   34.8052   59.8797 H   0  0  0  0  0  0  0  0  0  0  0  0
   32.1194   34.8459   60.8764 H   0  0  0  0  0  0  0  0  0  0  0  0
   32.0362   33.7796   59.4535 H   0  0  0  0  0  0  0  0  0  0  0  0
   32.5207   34.6017   57.2833 H   0  0  0  0  0  0  0  0  0  0  0  0
   33.4112   36.4104   55.8716 H   0  0  0  0  0  0  0  0  0  0  0  0
   33.6950   38.6734   56.7966 H   0  0  0  0  0  0  0  0  0  0  0  0
   34.1484   39.6495   59.6528 H   0  0  0  0  0  0  0  0  0  0  0  0
   32.9253   40.2666   58.5163 H   0  0  0  0  0  0  0  0  0  0  0  0
   32.4312   39.6744   60.1204 H   0  0  0  0  0  0  0  0  0  0  0  0
   32.7595   37.7065   61.4797 H   0  0  0  0  0  0  0  0  0  0  0  0
   29.0319   36.2199   63.6690 H   0  0  0  0  0  0  0  0  0  0  0  0
   31.2845   32.3055   62.9589 H   0  0  0  0  0  0  0  0  0  0  0  0
   29.8511   30.7388   64.6061 H   0  0  0  0  0  0  0  0  0  0  0  0
   29.7328   39.4636   62.2718 H   0  0  0  0  0  0  0  0  0  0  0  0
   28.4796   38.2025   62.1864 H   0  0  0  0  0  0  0  0  0  0  0  0
   28.5929   37.9234   64.6477 H   0  0  0  0  0  0  0  0  0  0  0  0
   28.1962   39.6032   64.2128 H   0  0  0  0  0  0  0  0  0  0  0  0
   29.9251   39.5282   65.9887 H   0  0  0  0  0  0  0  0  0  0  0  0
   30.5770   40.2378   64.4922 H   0  0  0  0  0  0  0  0  0  0  0  0
   30.9089   37.3357   65.3779 H   0  0  0  0  0  0  0  0  0  0  0  0
   32.1622   38.5967   65.4631 H   0  0  0  0  0  0  0  0  0  0  0  0
   32.4455   37.1961   63.4366 H   0  0  0  0  0  0  0  0  0  0  0  0
   32.0489   38.8759   63.0018 H   0  0  0  0  0  0  0  0  0  0  0  0
  1  2  1  0  0  0  0
  1 27  1  0  0  0  0
  1 28  1  0  0  0  0
  1 29  1  0  0  0  0
  2  8  2  0  0  0  0
  2  3  1  0  0  0  0
  3  4  2  0  0  0  0
  3 30  1  0  0  0  0
  4  5  1  0  0  0  0
  4 31  1  0  0  0  0
  5  6  2  0  0  0  0
  5 32  1  0  0  0  0
  6  7  1  0  0  0  0
  6  8  1  0  0  0  0
  7 33  1  0  0  0  0
  7 34  1  0  0  0  0
  7 35  1  0  0  0  0
  8  9  1  0  0  0  0
  9 10  1  0  0  0  0
  9 36  1  0  0  0  0
 10 11  2  0  0  0  0
 10 12  1  0  0  0  0
 12 26  1  0  0  0  0
 12 13  1  0  0  0  0
 12 22  1  0  0  0  0
 13 14  1  0  0  0  0
 13 37  1  0  0  0  0
 14 15  2  0  0  0  0
 14 16  1  0  0  0  0
 16 20  1  0  0  0  0
 16 17  2  0  0  0  0
 17 18  1  0  0  0  0
 17 38  1  0  0  0  0
 18 19  2  0  0  0  0
 18 39  1  0  0  0  0
 19 20  1  0  0  0  0
 20 21  1  0  0  0  0
 22 23  1  0  0  0  0
 22 40  1  0  0  0  0
 22 41  1  0  0  0  0
 23 24  1  0  0  0  0
 23 42  1  0  0  0  0
 23 43  1  0  0  0  0
 24 25  1  0  0  0  0
 24 44  1  0  0  0  0
 24 45  1  0  0  0  0
 25 26  1  0  0  0  0
 25 46  1  0  0  0  0
 25 47  1  0  0  0  0
 26 48  1  0  0  0  0
 26 49  1  0  0  0  0
M  END
$$$$
