ZINC000000054155      none
 OpenBabel11202420153D

 24 25  0  0  0  0  0  0  0  0999 V2000
   29.5540   38.3006   62.9257 C   0  0  0  0  0  0  0  0  0  0  0  0
   30.9900   38.8075   62.7775 C   0  0  0  0  0  0  0  0  0  0  0  0
   31.3874   38.7193   61.4077 O   0  0  0  0  0  0  0  0  0  0  0  0
   31.9703   37.5687   61.0120 C   0  0  0  0  0  0  0  0  0  0  0  0
   32.1362   36.6650   61.8096 O   0  0  0  0  0  0  0  0  0  0  0  0
   32.4028   37.4077   59.6242 C   0  0  0  0  0  0  0  0  0  0  0  0
   32.4210   36.1505   59.0118 C   0  0  0  0  0  0  0  0  0  0  0  0
   32.8206   36.0399   57.7640 N   0  0  0  0  0  0  0  0  0  0  0  0
   33.2122   37.0744   57.0156 C   0  0  0  0  0  0  0  0  0  0  0  0
   33.7476   37.0693   55.3857 S   0  0  0  0  0  0  0  0  0  0  0  0
   33.9908   38.8078   55.4169 C   0  0  0  0  0  0  0  0  0  0  0  0
   33.6698   39.2732   56.5988 C   0  0  0  0  0  0  0  0  0  0  0  0
   33.2362   38.3352   57.5017 N   0  0  0  0  0  0  0  0  0  0  0  0
   32.8342   38.5597   58.8230 C   0  0  0  0  0  0  0  0  0  0  0  0
   32.8431   39.7677   59.3327 N   0  0  0  0  0  0  0  0  0  0  0  0
   29.4995   37.2625   62.5978 H   0  0  0  0  0  0  0  0  0  0  0  0
   29.2509   38.3678   63.9706 H   0  0  0  0  0  0  0  0  0  0  0  0
   28.8886   38.9102   62.3144 H   0  0  0  0  0  0  0  0  0  0  0  0
   31.6554   38.1979   63.3889 H   0  0  0  0  0  0  0  0  0  0  0  0
   31.0445   39.8455   63.1056 H   0  0  0  0  0  0  0  0  0  0  0  0
   32.1125   35.2743   59.5625 H   0  0  0  0  0  0  0  0  0  0  0  0
   34.3498   39.4019   54.5894 H   0  0  0  0  0  0  0  0  0  0  0  0
   33.7420   40.3221   56.8455 H   0  0  0  0  0  0  0  0  0  0  0  0
   32.6374   39.8996   60.2714 H   0  0  0  0  0  0  0  0  0  0  0  0
  1  2  1  0  0  0  0
  1 16  1  0  0  0  0
  1 17  1  0  0  0  0
  1 18  1  0  0  0  0
  2  3  1  0  0  0  0
  2 19  1  0  0  0  0
  2 20  1  0  0  0  0
  3  4  1  0  0  0  0
  4  5  2  0  0  0  0
  4  6  1  0  0  0  0
  6 14  1  0  0  0  0
  6  7  2  0  0  0  0
  7  8  1  0  0  0  0
  7 21  1  0  0  0  0
  8  9  2  0  0  0  0
  9 13  1  0  0  0  0
  9 10  1  0  0  0  0
 10 11  1  0  0  0  0
 11 12  2  0  0  0  0
 11 22  1  0  0  0  0
 12 13  1  0  0  0  0
 12 23  1  0  0  0  0
 13 14  1  0  0  0  0
 14 15  2  0  0  0  0
 15 24  1  0  0  0  0
M  END
$$$$
