ZINC000000030708      none
 OpenBabel11202420163D

 29 30  0  0  0  0  0  0  0  0999 V2000
   34.6392   39.0869   54.6323 C   0  0  0  0  0  0  0  0  0  0  0  0
   34.0268   38.3878   55.8186 C   0  0  0  0  0  0  0  0  0  0  0  0
   33.6707   39.1149   56.9397 C   0  0  0  0  0  0  0  0  0  0  0  0
   33.1092   38.4773   58.0285 C   0  0  0  0  0  0  0  0  0  0  0  0
   32.9023   37.1044   57.9967 C   0  0  0  0  0  0  0  0  0  0  0  0
   32.3336   36.4554   59.0981 N   0  0  0  0  0  0  0  0  0  0  0  0
   31.4639   37.1113   59.8917 C   0  0  0  0  0  0  0  0  0  0  0  0
   31.1743   38.2643   59.6512 O   0  0  0  0  0  0  0  0  0  0  0  0
   30.8515   36.4124   61.0781 C   0  0  0  0  0  0  0  0  0  0  0  0
   31.2171   37.1506   62.3399 C   0  0  0  0  0  0  0  0  0  0  0  0
   30.5058   38.1376   62.8869 C   0  0  0  0  0  0  0  0  0  0  0  0
   31.0396   38.6662   64.0496 C   0  0  0  0  0  0  0  0  0  0  0  0
   32.1843   38.1084   64.4469 C   0  0  0  0  0  0  0  0  0  0  0  0
   32.6430   36.8373   63.3208 S   0  0  0  0  0  0  0  0  0  0  0  0
   33.2663   36.3763   56.8716 C   0  0  0  0  0  0  0  0  0  0  0  0
   33.8216   37.0208   55.7836 C   0  0  0  0  0  0  0  0  0  0  0  0
   35.7236   39.1050   54.7413 H   0  0  0  0  0  0  0  0  0  0  0  0
   34.3747   38.5529   53.7196 H   0  0  0  0  0  0  0  0  0  0  0  0
   34.2624   40.1082   54.5780 H   0  0  0  0  0  0  0  0  0  0  0  0
   33.8322   40.1825   56.9639 H   0  0  0  0  0  0  0  0  0  0  0  0
   32.8317   39.0456   58.9039 H   0  0  0  0  0  0  0  0  0  0  0  0
   32.5653   35.5333   59.2906 H   0  0  0  0  0  0  0  0  0  0  0  0
   31.2283   35.3911   61.1325 H   0  0  0  0  0  0  0  0  0  0  0  0
   29.7671   36.3942   60.9691 H   0  0  0  0  0  0  0  0  0  0  0  0
   29.5837   38.4973   62.4551 H   0  0  0  0  0  0  0  0  0  0  0  0
   30.5650   39.4691   64.5941 H   0  0  0  0  0  0  0  0  0  0  0  0
   32.7417   38.3906   65.3278 H   0  0  0  0  0  0  0  0  0  0  0  0
   33.1107   35.3078   56.8456 H   0  0  0  0  0  0  0  0  0  0  0  0
   34.1005   36.4558   54.9065 H   0  0  0  0  0  0  0  0  0  0  0  0
  1  2  1  0  0  0  0
  1 17  1  0  0  0  0
  1 18  1  0  0  0  0
  1 19  1  0  0  0  0
  2 16  2  0  0  0  0
  2  3  1  0  0  0  0
  3  4  2  0  0  0  0
  3 20  1  0  0  0  0
  4  5  1  0  0  0  0
  4 21  1  0  0  0  0
  5  6  1  0  0  0  0
  5 15  2  0  0  0  0
  6  7  1  0  0  0  0
  6 22  1  0  0  0  0
  7  8  2  0  0  0  0
  7  9  1  0  0  0  0
  9 10  1  0  0  0  0
  9 23  1  0  0  0  0
  9 24  1  0  0  0  0
 10 14  1  0  0  0  0
 10 11  2  0  0  0  0
 11 12  1  0  0  0  0
 11 25  1  0  0  0  0
 12 13  2  0  0  0  0
 12 26  1  0  0  0  0
 13 14  1  0  0  0  0
 13 27  1  0  0  0  0
 15 16  1  0  0  0  0
 15 28  1  0  0  0  0
 16 29  1  0  0  0  0
M  END
$$$$
