ZINC000000051501      none
 OpenBabel11202420153D

 28 29  0  0  0  0  0  0  0  0999 V2000
   33.3162   39.7958   58.1730 C   0  0  0  0  0  0  0  0  0  0  0  0
   32.7393   38.5647   58.8233 C   0  0  0  0  0  0  0  0  0  0  0  0
   32.8980   37.3282   58.2254 C   0  0  0  0  0  0  0  0  0  0  0  0
   32.3643   36.2000   58.8190 C   0  0  0  0  0  0  0  0  0  0  0  0
   31.6806   36.3064   60.0160 C   0  0  0  0  0  0  0  0  0  0  0  0
   31.1041   35.0752   60.6666 C   0  0  0  0  0  0  0  0  0  0  0  0
   31.5228   37.5423   60.6142 C   0  0  0  0  0  0  0  0  0  0  0  0
   30.6476   37.6785   62.1374 S   0  0  0  0  0  0  0  0  0  0  0  0
   30.1775   39.0174   62.2117 O   0  0  0  0  0  0  0  0  0  0  0  0
   29.7894   36.5483   62.2096 O   0  0  0  0  0  0  0  0  0  0  0  0
   31.7549   37.5035   63.3564 N   0  0  0  0  0  0  0  0  0  0  0  0
   32.9063   36.7648   63.3078 C   0  0  0  0  0  0  0  0  0  0  0  0
   33.5073   36.9010   64.5052 C   0  0  0  0  0  0  0  0  0  0  0  0
   32.7389   37.6933   65.2674 N   0  0  0  0  0  0  0  0  0  0  0  0
   31.6875   38.0579   64.5858 C   0  0  0  0  0  0  0  0  0  0  0  0
   32.0521   38.6717   60.0177 C   0  0  0  0  0  0  0  0  0  0  0  0
   32.5781   40.2302   57.4988 H   0  0  0  0  0  0  0  0  0  0  0  0
   33.5792   40.5230   58.9411 H   0  0  0  0  0  0  0  0  0  0  0  0
   34.2084   39.5244   57.6088 H   0  0  0  0  0  0  0  0  0  0  0  0
   33.4350   37.2447   57.2921 H   0  0  0  0  0  0  0  0  0  0  0  0
   32.4844   35.2347   58.3497 H   0  0  0  0  0  0  0  0  0  0  0  0
   30.0875   34.9164   60.3068 H   0  0  0  0  0  0  0  0  0  0  0  0
   31.7179   34.2103   60.4151 H   0  0  0  0  0  0  0  0  0  0  0  0
   31.0900   35.2087   61.7483 H   0  0  0  0  0  0  0  0  0  0  0  0
   33.2652   36.1862   62.4695 H   0  0  0  0  0  0  0  0  0  0  0  0
   34.4414   36.4473   64.8017 H   0  0  0  0  0  0  0  0  0  0  0  0
   30.8951   38.6977   64.9452 H   0  0  0  0  0  0  0  0  0  0  0  0
   31.9287   39.6374   60.4851 H   0  0  0  0  0  0  0  0  0  0  0  0
  1  2  1  0  0  0  0
  1 17  1  0  0  0  0
  1 18  1  0  0  0  0
  1 19  1  0  0  0  0
  2 16  2  0  0  0  0
  2  3  1  0  0  0  0
  3  4  2  0  0  0  0
  3 20  1  0  0  0  0
  4  5  1  0  0  0  0
  4 21  1  0  0  0  0
  5  6  1  0  0  0  0
  5  7  2  0  0  0  0
  6 22  1  0  0  0  0
  6 23  1  0  0  0  0
  6 24  1  0  0  0  0
  7  8  1  0  0  0  0
  7 16  1  0  0  0  0
  8  9  2  0  0  0  0
  8 10  2  0  0  0  0
  8 11  1  0  0  0  0
 11 15  1  0  0  0  0
 11 12  1  0  0  0  0
 12 13  2  0  0  0  0
 12 25  1  0  0  0  0
 13 14  1  0  0  0  0
 13 26  1  0  0  0  0
 14 15  2  0  0  0  0
 15 27  1  0  0  0  0
 16 28  1  0  0  0  0
M  END
$$$$
