ZINC000000003017      none
 OpenBabel11202420153D

 17 18  0  0  1  0  0  0  0  0999 V2000
   28.1067   39.6497   63.2932 N   0  0  0  0  0  0  0  0  0  0  0  0
   29.0593   39.1996   62.8686 C   0  0  0  0  0  0  0  0  0  0  0  0
   30.2938   38.6163   62.3184 C   0  0  1  0  0  0  0  0  0  0  0  0
   31.0930   39.3253   62.1022 H   0  0  0  0  0  0  0  0  0  0  0  0
   30.6978   37.2248   62.8097 C   0  0  0  0  0  0  0  0  0  0  0  0
   30.1523   37.4062   61.3918 C   0  0  2  0  0  0  0  0  0  0  0  0
   29.1449   37.0422   61.1898 H   0  0  0  0  0  0  0  0  0  0  0  0
   31.1284   37.2856   60.2500 C   0  0  0  0  0  0  0  0  0  0  0  0
   31.5623   36.1365   59.6979 C   0  0  0  0  0  0  0  0  0  0  0  0
   32.4317   36.4809   58.6983 N   0  0  0  0  0  0  0  0  0  0  0  0
   32.9101   35.8704   58.1159 H   0  0  0  0  0  0  0  0  0  0  0  0
   32.4987   37.8295   58.6743 C   0  0  0  0  0  0  0  0  0  0  0  0
   31.7129   38.3041   59.6019 N   0  0  0  0  0  0  0  0  0  0  0  0
   31.7627   37.0183   62.9167 H   0  0  0  0  0  0  0  0  0  0  0  0
   30.0494   36.7412   63.5404 H   0  0  0  0  0  0  0  0  0  0  0  0
   31.2791   35.1355   59.9883 H   0  0  0  0  0  0  0  0  0  0  0  0
   33.1000   38.4180   57.9970 H   0  0  0  0  0  0  0  0  0  0  0  0
  1  2  3  0  0  0  0
  2  3  1  0  0  0  0
  3  4  1  6  0  0  0
  3  6  1  0  0  0  0
  3  5  1  0  0  0  0
  5  6  1  0  0  0  0
  5 14  1  0  0  0  0
  5 15  1  0  0  0  0
  6  7  1  6  0  0  0
  6  8  1  0  0  0  0
  8 13  1  0  0  0  0
  8  9  2  0  0  0  0
  9 10  1  0  0  0  0
  9 16  1  0  0  0  0
 10 11  1  0  0  0  0
 10 12  1  0  0  0  0
 12 13  2  0  0  0  0
 12 17  1  0  0  0  0
M  END
$$$$
