ZINC000000000306      none
 OpenBabel11202420153D

 29 30  0  0  1  0  0  0  0  0999 V2000
   32.4909   34.8319   59.8694 O   0  0  0  0  0  0  0  0  0  0  0  0
   32.3180   35.1134   58.4790 C   0  0  2  0  0  0  0  0  0  0  0  0
   31.2802   34.9334   58.1981 H   0  0  0  0  0  0  0  0  0  0  0  0
   33.2339   34.2044   57.6569 C   0  0  0  0  0  0  0  0  0  0  0  0
   32.7424   34.1335   56.2787 N   0  0  0  0  0  0  0  0  0  0  0  0
   33.4135   33.3652   55.3433 C   0  0  0  0  0  0  0  0  0  0  0  0
   32.9553   33.3124   54.1013 N   0  0  0  0  0  0  0  0  0  0  0  0
   33.5761   32.5921   53.1817 C   0  0  0  0  0  0  0  0  0  0  0  0
   34.7115   31.8793   53.5340 C   0  0  0  0  0  0  0  0  0  0  0  0
   35.1603   31.9526   54.8433 C   0  0  0  0  0  0  0  0  0  0  0  0
   34.4956   32.6959   55.7126 N   0  0  0  0  0  0  0  0  0  0  0  0
   32.6683   36.5544   58.2109 C   0  0  0  0  0  0  0  0  0  0  0  0
   33.1843   36.9232   56.9827 C   0  0  0  0  0  0  0  0  0  0  0  0
   33.5020   38.2457   56.7355 C   0  0  0  0  0  0  0  0  0  0  0  0
   33.3111   39.1980   57.7191 C   0  0  0  0  0  0  0  0  0  0  0  0
   32.7999   38.8282   58.9492 C   0  0  0  0  0  0  0  0  0  0  0  0
   32.4787   37.5064   59.1951 C   0  0  0  0  0  0  0  0  0  0  0  0
   32.2828   33.9201   60.1149 H   0  0  0  0  0  0  0  0  0  0  0  0
   34.2462   34.6088   57.6614 H   0  0  0  0  0  0  0  0  0  0  0  0
   33.2400   33.2051   58.0923 H   0  0  0  0  0  0  0  0  0  0  0  0
   31.9466   34.6252   56.0218 H   0  0  0  0  0  0  0  0  0  0  0  0
   33.2002   32.5560   52.1699 H   0  0  0  0  0  0  0  0  0  0  0  0
   35.2353   31.2800   52.8040 H   0  0  0  0  0  0  0  0  0  0  0  0
   36.0419   31.4095   55.1501 H   0  0  0  0  0  0  0  0  0  0  0  0
   33.3366   36.1787   56.2153 H   0  0  0  0  0  0  0  0  0  0  0  0
   33.9017   38.5345   55.7746 H   0  0  0  0  0  0  0  0  0  0  0  0
   33.5618   40.2308   57.5269 H   0  0  0  0  0  0  0  0  0  0  0  0
   32.6512   39.5721   59.7179 H   0  0  0  0  0  0  0  0  0  0  0  0
   32.0793   37.2175   60.1561 H   0  0  0  0  0  0  0  0  0  0  0  0
  1  2  1  0  0  0  0
  1 18  1  0  0  0  0
  2  3  1  6  0  0  0
  2  4  1  0  0  0  0
  2 12  1  0  0  0  0
  4  5  1  0  0  0  0
  4 19  1  0  0  0  0
  4 20  1  0  0  0  0
  5  6  1  0  0  0  0
  5 21  1  0  0  0  0
  6 11  2  0  0  0  0
  6  7  1  0  0  0  0
  7  8  2  0  0  0  0
  8  9  1  0  0  0  0
  8 22  1  0  0  0  0
  9 10  2  0  0  0  0
  9 23  1  0  0  0  0
 10 11  1  0  0  0  0
 10 24  1  0  0  0  0
 12 17  2  0  0  0  0
 12 13  1  0  0  0  0
 13 14  2  0  0  0  0
 13 25  1  0  0  0  0
 14 15  1  0  0  0  0
 14 26  1  0  0  0  0
 15 16  2  0  0  0  0
 15 27  1  0  0  0  0
 16 17  1  0  0  0  0
 16 28  1  0  0  0  0
 17 29  1  0  0  0  0
M  END
$$$$
