ZINC000000039697      none
 OpenBabel11202420153D

 22 23  0  0  0  0  0  0  0  0999 V2000
   35.5556   32.6895   54.8813 N   0  0  0  0  0  0  0  0  0  0  0  0
   34.9234   33.8818   54.5287 C   0  0  0  0  0  0  0  0  0  0  0  0
   33.6623   33.9940   54.0964 N   0  0  0  0  0  0  0  0  0  0  0  0
   33.3880   35.2583   53.8537 C   0  0  0  0  0  0  0  0  0  0  0  0
   32.1828   35.7550   53.3935 N   0  0  0  0  0  0  0  0  0  0  0  0
   34.4936   35.9856   54.1333 N   0  0  0  0  0  0  0  0  0  0  0  0
   34.6368   37.3739   54.0142 C   0  0  0  0  0  0  0  0  0  0  0  0
   35.0839   37.9275   52.8216 C   0  0  0  0  0  0  0  0  0  0  0  0
   35.2236   39.2967   52.7072 C   0  0  0  0  0  0  0  0  0  0  0  0
   34.9189   40.1163   53.7785 C   0  0  0  0  0  0  0  0  0  0  0  0
   34.4736   39.5682   54.9674 C   0  0  0  0  0  0  0  0  0  0  0  0
   34.3317   38.1996   55.0882 C   0  0  0  0  0  0  0  0  0  0  0  0
   35.4713   35.0730   54.5610 N   0  0  0  0  0  0  0  0  0  0  0  0
   35.0744   31.8495   54.8224 H   0  0  0  0  0  0  0  0  0  0  0  0
   36.4767   32.7006   55.1855 H   0  0  0  0  0  0  0  0  0  0  0  0
   32.0763   36.7074   53.2434 H   0  0  0  0  0  0  0  0  0  0  0  0
   31.4436   35.1511   53.2206 H   0  0  0  0  0  0  0  0  0  0  0  0
   35.3217   37.2880   51.9844 H   0  0  0  0  0  0  0  0  0  0  0  0
   35.5709   39.7279   51.7798 H   0  0  0  0  0  0  0  0  0  0  0  0
   35.0333   41.1864   53.6880 H   0  0  0  0  0  0  0  0  0  0  0  0
   34.2364   40.2108   55.8023 H   0  0  0  0  0  0  0  0  0  0  0  0
   33.9838   37.7722   56.0169 H   0  0  0  0  0  0  0  0  0  0  0  0
  1  2  1  0  0  0  0
  1 14  1  0  0  0  0
  1 15  1  0  0  0  0
  2 13  2  0  0  0  0
  2  3  1  0  0  0  0
  3  4  2  0  0  0  0
  4  5  1  0  0  0  0
  4  6  1  0  0  0  0
  5 16  1  0  0  0  0
  5 17  1  0  0  0  0
  6  7  1  0  0  0  0
  6 13  1  0  0  0  0
  7 12  2  0  0  0  0
  7  8  1  0  0  0  0
  8  9  2  0  0  0  0
  8 18  1  0  0  0  0
  9 10  1  0  0  0  0
  9 19  1  0  0  0  0
 10 11  2  0  0  0  0
 10 20  1  0  0  0  0
 11 12  1  0  0  0  0
 11 21  1  0  0  0  0
 12 22  1  0  0  0  0
M  END
$$$$
