ZINC000000032927      none
 OpenBabel11202420153D

 44 45  0  0  0  0  0  0  0  0999 V2000
   30.4582   39.0023   63.6270 C   0  0  0  0  0  0  0  0  0  0  0  0
   30.6179   37.6110   63.0110 C   0  0  0  0  0  0  0  0  0  0  0  0
   32.0602   37.4268   62.5345 C   0  0  0  0  0  0  0  0  0  0  0  0
   32.2133   36.0946   61.9447 N   0  0  0  0  0  0  0  0  0  0  0  0
   31.9895   35.9080   60.5757 N   0  0  0  0  0  0  0  0  0  0  0  0
   32.1218   34.7244   60.0310 C   0  0  0  0  0  0  0  0  0  0  0  0
   31.9001   34.5664   58.7001 O   0  0  0  0  0  0  0  0  0  0  0  0
   32.4339   35.4782   57.8544 C   0  0  0  0  0  0  0  0  0  0  0  0
   32.6112   36.7311   58.2557 N   0  0  0  0  0  0  0  0  0  0  0  0
   33.1406   37.6264   57.4271 C   0  0  0  0  0  0  0  0  0  0  0  0
   33.3300   38.9276   57.8462 N   0  0  0  0  0  0  0  0  0  0  0  0
   32.9480   39.3229   59.2042 C   0  0  0  0  0  0  0  0  0  0  0  0
   33.9131   39.9137   56.9330 C   0  0  0  0  0  0  0  0  0  0  0  0
   33.4821   37.2691   56.1933 N   0  0  0  0  0  0  0  0  0  0  0  0
   33.2992   36.0157   55.7906 C   0  0  0  0  0  0  0  0  0  0  0  0
   33.6539   35.6434   54.5099 N   0  0  0  0  0  0  0  0  0  0  0  0
   34.2320   36.6297   53.5939 C   0  0  0  0  0  0  0  0  0  0  0  0
   33.4520   34.2619   54.0663 C   0  0  0  0  0  0  0  0  0  0  0  0
   32.7747   35.1204   56.6223 N   0  0  0  0  0  0  0  0  0  0  0  0
   32.4925   33.6154   60.8137 C   0  0  0  0  0  0  0  0  0  0  0  0
   32.7147   33.7739   62.1461 C   0  0  0  0  0  0  0  0  0  0  0  0
   32.5744   35.0533   62.7213 C   0  0  0  0  0  0  0  0  0  0  0  0
   32.7743   35.2164   63.9145 O   0  0  0  0  0  0  0  0  0  0  0  0
   29.4307   39.1335   63.9666 H   0  0  0  0  0  0  0  0  0  0  0  0
   31.1365   39.1048   64.4740 H   0  0  0  0  0  0  0  0  0  0  0  0
   30.6933   39.7599   62.8795 H   0  0  0  0  0  0  0  0  0  0  0  0
   30.3829   36.8534   63.7586 H   0  0  0  0  0  0  0  0  0  0  0  0
   29.9395   37.5084   62.1640 H   0  0  0  0  0  0  0  0  0  0  0  0
   32.2953   38.1843   61.7869 H   0  0  0  0  0  0  0  0  0  0  0  0
   32.7385   37.5294   63.3814 H   0  0  0  0  0  0  0  0  0  0  0  0
   33.5086   38.7294   59.9265 H   0  0  0  0  0  0  0  0  0  0  0  0
   33.1709   40.3796   59.3512 H   0  0  0  0  0  0  0  0  0  0  0  0
   31.8805   39.1536   59.3450 H   0  0  0  0  0  0  0  0  0  0  0  0
   33.1150   40.4644   56.4351 H   0  0  0  0  0  0  0  0  0  0  0  0
   34.5362   40.6076   57.4972 H   0  0  0  0  0  0  0  0  0  0  0  0
   34.5220   39.4026   56.1872 H   0  0  0  0  0  0  0  0  0  0  0  0
   35.3170   36.6304   53.6984 H   0  0  0  0  0  0  0  0  0  0  0  0
   33.9659   36.3733   52.5685 H   0  0  0  0  0  0  0  0  0  0  0  0
   33.8434   37.6196   53.8333 H   0  0  0  0  0  0  0  0  0  0  0  0
   32.4604   34.1631   53.6247 H   0  0  0  0  0  0  0  0  0  0  0  0
   34.2077   34.0045   53.3240 H   0  0  0  0  0  0  0  0  0  0  0  0
   33.5380   33.5898   54.9202 H   0  0  0  0  0  0  0  0  0  0  0  0
   32.5995   32.6420   60.3583 H   0  0  0  0  0  0  0  0  0  0  0  0
   32.9996   32.9295   62.7563 H   0  0  0  0  0  0  0  0  0  0  0  0
  1  2  1  0  0  0  0
  1 24  1  0  0  0  0
  1 25  1  0  0  0  0
  1 26  1  0  0  0  0
  2  3  1  0  0  0  0
  2 27  1  0  0  0  0
  2 28  1  0  0  0  0
  3  4  1  0  0  0  0
  3 29  1  0  0  0  0
  3 30  1  0  0  0  0
  4 22  1  0  0  0  0
  4  5  1  0  0  0  0
  5  6  2  0  0  0  0
  6  7  1  0  0  0  0
  6 20  1  0  0  0  0
  7  8  1  0  0  0  0
  8 19  2  0  0  0  0
  8  9  1  0  0  0  0
  9 10  2  0  0  0  0
 10 11  1  0  0  0  0
 10 14  1  0  0  0  0
 11 12  1  0  0  0  0
 11 13  1  0  0  0  0
 12 31  1  0  0  0  0
 12 32  1  0  0  0  0
 12 33  1  0  0  0  0
 13 34  1  0  0  0  0
 13 35  1  0  0  0  0
 13 36  1  0  0  0  0
 14 15  2  0  0  0  0
 15 16  1  0  0  0  0
 15 19  1  0  0  0  0
 16 17  1  0  0  0  0
 16 18  1  0  0  0  0
 17 37  1  0  0  0  0
 17 38  1  0  0  0  0
 17 39  1  0  0  0  0
 18 40  1  0  0  0  0
 18 41  1  0  0  0  0
 18 42  1  0  0  0  0
 20 21  2  0  0  0  0
 20 43  1  0  0  0  0
 21 22  1  0  0  0  0
 21 44  1  0  0  0  0
 22 23  2  0  0  0  0
M  END
$$$$
