ZINC000000036720      none
 OpenBabel11202420153D

 30 31  0  0  0  0  0  0  0  0999 V2000
   32.0945   34.9010   59.3226 C   0  0  0  0  0  0  0  0  0  0  0  0
   32.1851   36.3612   59.6838 C   0  0  0  0  0  0  0  0  0  0  0  0
   32.6175   37.2725   58.7591 N   0  0  0  0  0  0  0  0  0  0  0  0
   32.8650   36.9742   57.8699 H   0  0  0  0  0  0  0  0  0  0  0  0
   32.6971   38.5791   59.0700 C   0  0  0  0  0  0  0  0  0  0  0  0
   33.0795   39.3723   58.2316 O   0  0  0  0  0  0  0  0  0  0  0  0
   32.3591   39.0205   60.2958 N   0  0  0  0  0  0  0  0  0  0  0  0
   32.4222   39.9660   60.5031 H   0  0  0  0  0  0  0  0  0  0  0  0
   31.9336   38.1536   61.2368 C   0  0  0  0  0  0  0  0  0  0  0  0
   31.6284   38.5521   62.3463 O   0  0  0  0  0  0  0  0  0  0  0  0
   31.8455   36.7759   60.9231 C   0  0  0  0  0  0  0  0  0  0  0  0
   31.2930   35.6187   62.1315 S   0  0  0  0  0  0  0  0  0  0  0  0
   29.8811   35.5375   61.9934 O   0  0  0  0  0  0  0  0  0  0  0  0
   32.1502   34.4902   62.0279 O   0  0  0  0  0  0  0  0  0  0  0  0
   31.5794   36.2885   63.6187 N   0  0  0  0  0  0  0  0  0  0  0  0
   30.5542   37.1164   64.2590 C   0  0  0  0  0  0  0  0  0  0  0  0
   31.2168   38.1509   65.1316 C   0  0  0  0  0  0  0  0  0  0  0  0
   32.5423   38.3055   65.3004 C   0  0  0  0  0  0  0  0  0  0  0  0
   32.7180   39.3858   66.1954 C   0  0  0  0  0  0  0  0  0  0  0  0
   31.4893   39.8266   66.5202 C   0  0  0  0  0  0  0  0  0  0  0  0
   30.5841   39.0787   65.8684 O   0  0  0  0  0  0  0  0  0  0  0  0
   32.4122   34.7618   58.2894 H   0  0  0  0  0  0  0  0  0  0  0  0
   32.7411   34.3226   59.9826 H   0  0  0  0  0  0  0  0  0  0  0  0
   31.0645   34.5622   59.4349 H   0  0  0  0  0  0  0  0  0  0  0  0
   32.4260   36.1328   64.0660 H   0  0  0  0  0  0  0  0  0  0  0  0
   29.9588   37.6141   63.4935 H   0  0  0  0  0  0  0  0  0  0  0  0
   29.9075   36.4862   64.8696 H   0  0  0  0  0  0  0  0  0  0  0  0
   33.3226   37.7178   64.8400 H   0  0  0  0  0  0  0  0  0  0  0  0
   33.6582   39.7809   66.5507 H   0  0  0  0  0  0  0  0  0  0  0  0
   31.2683   40.6464   67.1878 H   0  0  0  0  0  0  0  0  0  0  0  0
  1  2  1  0  0  0  0
  1 22  1  0  0  0  0
  1 23  1  0  0  0  0
  1 24  1  0  0  0  0
  2 11  2  0  0  0  0
  2  3  1  0  0  0  0
  3  4  1  0  0  0  0
  3  5  1  0  0  0  0
  5  6  2  0  0  0  0
  5  7  1  0  0  0  0
  7  8  1  0  0  0  0
  7  9  1  0  0  0  0
  9 10  2  0  0  0  0
  9 11  1  0  0  0  0
 11 12  1  0  0  0  0
 12 13  2  0  0  0  0
 12 14  2  0  0  0  0
 12 15  1  0  0  0  0
 15 16  1  0  0  0  0
 15 25  1  0  0  0  0
 16 17  1  0  0  0  0
 16 26  1  0  0  0  0
 16 27  1  0  0  0  0
 17 21  1  0  0  0  0
 17 18  2  0  0  0  0
 18 19  1  0  0  0  0
 18 28  1  0  0  0  0
 19 20  2  0  0  0  0
 19 29  1  0  0  0  0
 20 21  1  0  0  0  0
 20 30  1  0  0  0  0
M  END
$$$$
