ZINC000000007322      none
 OpenBabel11202420153D

 39 44  0  0  0  0  0  0  0  0999 V2000
   34.9673   41.0891   53.6631 O   0  0  0  0  0  0  0  0  0  0  0  0
   34.8271   39.8824   53.6165 C   0  0  0  0  0  0  0  0  0  0  0  0
   35.0934   39.1204   52.5426 N   0  0  0  0  0  0  0  0  0  0  0  0
   34.8015   37.7202   52.8675 C   0  0  0  0  0  0  0  0  0  0  0  0
   34.3149   37.7100   54.2962 C   0  0  0  0  0  0  0  0  0  0  0  0
   34.3397   39.0473   54.7315 C   0  0  0  0  0  0  0  0  0  0  0  0
   33.9420   39.3685   56.0212 C   0  0  0  0  0  0  0  0  0  0  0  0
   33.5146   38.3583   56.8953 C   0  0  0  0  0  0  0  0  0  0  0  0
   33.1072   38.6634   58.2072 C   0  0  0  0  0  0  0  0  0  0  0  0
   32.6991   37.6700   59.0414 C   0  0  0  0  0  0  0  0  0  0  0  0
   32.6742   36.3380   58.6193 C   0  0  0  0  0  0  0  0  0  0  0  0
   33.0660   36.0034   57.3351 C   0  0  0  0  0  0  0  0  0  0  0  0
   33.4876   37.0117   56.4540 C   0  0  0  0  0  0  0  0  0  0  0  0
   33.9002   36.7003   55.1341 C   0  0  0  0  0  0  0  0  0  0  0  0
   33.8792   35.2977   54.6579 C   0  0  0  0  0  0  0  0  0  0  0  0
   32.7346   34.7835   54.0489 C   0  0  0  0  0  0  0  0  0  0  0  0
   32.7183   33.4789   53.6009 C   0  0  0  0  0  0  0  0  0  0  0  0
   33.8345   32.6715   53.7630 C   0  0  0  0  0  0  0  0  0  0  0  0
   34.9813   33.1800   54.3711 C   0  0  0  0  0  0  0  0  0  0  0  0
   35.0040   34.4888   54.8173 C   0  0  0  0  0  0  0  0  0  0  0  0
   35.9291   32.1977   54.4047 O   0  0  0  0  0  0  0  0  0  0  0  0
   35.2151   30.9673   54.1836 C   0  0  0  0  0  0  0  0  0  0  0  0
   34.0655   31.3713   53.4167 O   0  0  0  0  0  0  0  0  0  0  0  0
   32.9500   34.6532   57.1753 O   0  0  0  0  0  0  0  0  0  0  0  0
   32.8704   34.1154   58.5086 C   0  0  0  0  0  0  0  0  0  0  0  0
   32.3090   35.1968   59.2756 O   0  0  0  0  0  0  0  0  0  0  0  0
   35.4255   39.4438   51.6905 H   0  0  0  0  0  0  0  0  0  0  0  0
   35.7056   37.1181   52.7755 H   0  0  0  0  0  0  0  0  0  0  0  0
   34.0261   37.3358   52.2049 H   0  0  0  0  0  0  0  0  0  0  0  0
   33.9618   40.3964   56.3522 H   0  0  0  0  0  0  0  0  0  0  0  0
   33.1190   39.6869   58.5519 H   0  0  0  0  0  0  0  0  0  0  0  0
   32.3895   37.9144   60.0468 H   0  0  0  0  0  0  0  0  0  0  0  0
   31.8622   35.4079   53.9247 H   0  0  0  0  0  0  0  0  0  0  0  0
   31.8329   33.0842   53.1248 H   0  0  0  0  0  0  0  0  0  0  0  0
   35.8917   34.8838   55.2888 H   0  0  0  0  0  0  0  0  0  0  0  0
   34.9071   30.5275   55.1322 H   0  0  0  0  0  0  0  0  0  0  0  0
   35.8269   30.2661   53.6160 H   0  0  0  0  0  0  0  0  0  0  0  0
   33.8629   33.8577   58.8783 H   0  0  0  0  0  0  0  0  0  0  0  0
   32.2145   33.2452   58.5353 H   0  0  0  0  0  0  0  0  0  0  0  0
  1  2  2  0  0  0  0
  2  6  1  0  0  0  0
  2  3  1  0  0  0  0
  3  4  1  0  0  0  0
  3 27  1  0  0  0  0
  4  5  1  0  0  0  0
  4 28  1  0  0  0  0
  4 29  1  0  0  0  0
  5 14  2  0  0  0  0
  5  6  1  0  0  0  0
  6  7  2  0  0  0  0
  7  8  1  0  0  0  0
  7 30  1  0  0  0  0
  8 13  2  0  0  0  0
  8  9  1  0  0  0  0
  9 10  2  0  0  0  0
  9 31  1  0  0  0  0
 10 11  1  0  0  0  0
 10 32  1  0  0  0  0
 11 26  1  0  0  0  0
 11 12  2  0  0  0  0
 12 13  1  0  0  0  0
 12 24  1  0  0  0  0
 13 14  1  0  0  0  0
 14 15  1  0  0  0  0
 15 20  2  0  0  0  0
 15 16  1  0  0  0  0
 16 17  2  0  0  0  0
 16 33  1  0  0  0  0
 17 18  1  0  0  0  0
 17 34  1  0  0  0  0
 18 23  1  0  0  0  0
 18 19  2  0  0  0  0
 19 20  1  0  0  0  0
 19 21  1  0  0  0  0
 20 35  1  0  0  0  0
 21 22  1  0  0  0  0
 22 23  1  0  0  0  0
 22 36  1  0  0  0  0
 22 37  1  0  0  0  0
 24 25  1  0  0  0  0
 25 26  1  0  0  0  0
 25 38  1  0  0  0  0
 25 39  1  0  0  0  0
M  END
$$$$
