ZINC000000013344      none
 OpenBabel11202420153D

 28 30  0  0  0  0  0  0  0  0999 V2000
   32.7992   36.6687   66.1894 N   0  0  0  0  0  0  0  0  0  0  0  0
   31.9429   37.3275   65.3228 C   0  0  0  0  0  0  0  0  0  0  0  0
   30.9308   38.0287   65.7934 N   0  0  0  0  0  0  0  0  0  0  0  0
   30.0915   38.6727   64.9751 C   0  0  0  0  0  0  0  0  0  0  0  0
   30.2453   38.6325   63.6370 C   0  0  0  0  0  0  0  0  0  0  0  0
   31.2798   37.9197   63.0909 N   0  0  0  0  0  0  0  0  0  0  0  0
   31.7072   37.6796   61.8354 C   0  0  0  0  0  0  0  0  0  0  0  0
   31.0820   38.2014   60.5674 C   0  0  0  0  0  0  0  0  0  0  0  0
   31.8634   37.7017   59.3796 C   0  0  0  0  0  0  0  0  0  0  0  0
   32.7067   38.5595   58.6947 C   0  0  0  0  0  0  0  0  0  0  0  0
   32.8292   39.8454   59.0904 F   0  0  0  0  0  0  0  0  0  0  0  0
   33.4289   38.0976   57.6072 C   0  0  0  0  0  0  0  0  0  0  0  0
   33.2987   36.7839   57.1981 C   0  0  0  0  0  0  0  0  0  0  0  0
   32.4527   35.9280   57.8777 C   0  0  0  0  0  0  0  0  0  0  0  0
   31.7341   36.3861   58.9692 C   0  0  0  0  0  0  0  0  0  0  0  0
   30.9076   35.5491   59.6336 F   0  0  0  0  0  0  0  0  0  0  0  0
   32.7686   36.9149   61.9176 N   0  0  0  0  0  0  0  0  0  0  0  0
   33.0359   36.6584   63.1510 N   0  0  0  0  0  0  0  0  0  0  0  0
   32.1478   37.2540   63.9229 C   0  0  0  0  0  0  0  0  0  0  0  0
   33.5428   36.1541   65.8386 H   0  0  0  0  0  0  0  0  0  0  0  0
   32.6550   36.7218   67.1473 H   0  0  0  0  0  0  0  0  0  0  0  0
   29.2727   39.2375   65.3959 H   0  0  0  0  0  0  0  0  0  0  0  0
   29.5545   39.1607   62.9966 H   0  0  0  0  0  0  0  0  0  0  0  0
   30.0524   37.8502   60.4987 H   0  0  0  0  0  0  0  0  0  0  0  0
   31.0943   39.2913   60.5779 H   0  0  0  0  0  0  0  0  0  0  0  0
   34.0903   38.7655   57.0754 H   0  0  0  0  0  0  0  0  0  0  0  0
   33.8587   36.4258   56.3469 H   0  0  0  0  0  0  0  0  0  0  0  0
   32.3517   34.9016   57.5571 H   0  0  0  0  0  0  0  0  0  0  0  0
  1  2  1  0  0  0  0
  1 20  1  0  0  0  0
  1 21  1  0  0  0  0
  2 19  1  0  0  0  0
  2  3  2  0  0  0  0
  3  4  1  0  0  0  0
  4  5  2  0  0  0  0
  4 22  1  0  0  0  0
  5  6  1  0  0  0  0
  5 23  1  0  0  0  0
  6 19  1  0  0  0  0
  6  7  1  0  0  0  0
  7  8  1  0  0  0  0
  7 17  2  0  0  0  0
  8  9  1  0  0  0  0
  8 24  1  0  0  0  0
  8 25  1  0  0  0  0
  9 15  2  0  0  0  0
  9 10  1  0  0  0  0
 10 11  1  0  0  0  0
 10 12  2  0  0  0  0
 12 13  1  0  0  0  0
 12 26  1  0  0  0  0
 13 14  2  0  0  0  0
 13 27  1  0  0  0  0
 14 15  1  0  0  0  0
 14 28  1  0  0  0  0
 15 16  1  0  0  0  0
 17 18  1  0  0  0  0
 18 19  2  0  0  0  0
M  END
$$$$
