ZINC000000050753      none
 OpenBabel11202420153D

 33 35  0  0  0  0  0  0  0  0999 V2000
   33.2366   37.0551   55.9235 O   0  0  0  0  0  0  0  0  0  0  0  0
   33.0204   36.4917   56.9786 C   0  0  0  0  0  0  0  0  0  0  0  0
   32.4763   37.1219   58.1854 C   0  0  0  0  0  0  0  0  0  0  0  0
   32.3903   36.1520   59.1306 C   0  0  0  0  0  0  0  0  0  0  0  0
   31.9320   36.2957   60.4217 N   0  0  0  0  0  0  0  0  0  0  0  0
   32.0848   37.5694   61.1426 C   0  0  0  0  0  0  0  0  0  0  0  0
   30.7165   37.9573   61.7252 C   0  0  0  0  0  0  0  0  0  0  0  0
   30.2001   36.8590   62.4807 O   0  0  0  0  0  0  0  0  0  0  0  0
   29.9562   35.6808   61.7085 C   0  0  0  0  0  0  0  0  0  0  0  0
   31.2806   35.1780   61.1229 C   0  0  0  0  0  0  0  0  0  0  0  0
   32.8901   34.9021   58.4955 C   0  0  0  0  0  0  0  0  0  0  0  0
   32.9679   33.8142   59.0272 O   0  0  0  0  0  0  0  0  0  0  0  0
   33.2357   35.1884   57.2271 N   0  0  0  0  0  0  0  0  0  0  0  0
   33.7469   34.2659   56.3038 C   0  0  0  0  0  0  0  0  0  0  0  0
   34.5007   33.1862   56.7439 C   0  0  0  0  0  0  0  0  0  0  0  0
   34.9996   32.2765   55.8324 C   0  0  0  0  0  0  0  0  0  0  0  0
   34.7572   32.4457   54.4808 C   0  0  0  0  0  0  0  0  0  0  0  0
   35.4484   31.2024   53.2348 Br  0  0  0  0  0  0  0  0  0  0  0  0
   34.0103   33.5234   54.0391 C   0  0  0  0  0  0  0  0  0  0  0  0
   33.5051   34.4335   54.9469 C   0  0  0  0  0  0  0  0  0  0  0  0
   32.1974   38.1589   58.3001 H   0  0  0  0  0  0  0  0  0  0  0  0
   32.8097   37.4510   61.9478 H   0  0  0  0  0  0  0  0  0  0  0  0
   32.4243   38.3428   60.4533 H   0  0  0  0  0  0  0  0  0  0  0  0
   30.0278   38.1978   60.9153 H   0  0  0  0  0  0  0  0  0  0  0  0
   30.8308   38.8246   62.3754 H   0  0  0  0  0  0  0  0  0  0  0  0
   29.2648   35.9130   60.8986 H   0  0  0  0  0  0  0  0  0  0  0  0
   29.5240   34.9097   62.3464 H   0  0  0  0  0  0  0  0  0  0  0  0
   31.0871   34.3669   60.4209 H   0  0  0  0  0  0  0  0  0  0  0  0
   31.9261   34.8223   61.9259 H   0  0  0  0  0  0  0  0  0  0  0  0
   34.6936   33.0560   57.7985 H   0  0  0  0  0  0  0  0  0  0  0  0
   35.5832   31.4346   56.1745 H   0  0  0  0  0  0  0  0  0  0  0  0
   33.8224   33.6533   52.9835 H   0  0  0  0  0  0  0  0  0  0  0  0
   32.9221   35.2745   54.6016 H   0  0  0  0  0  0  0  0  0  0  0  0
  1  2  2  0  0  0  0
  2 13  1  0  0  0  0
  2  3  1  0  0  0  0
  3  4  2  0  0  0  0
  3 21  1  0  0  0  0
  4  5  1  0  0  0  0
  4 11  1  0  0  0  0
  5 10  1  0  0  0  0
  5  6  1  0  0  0  0
  6  7  1  0  0  0  0
  6 22  1  0  0  0  0
  6 23  1  0  0  0  0
  7  8  1  0  0  0  0
  7 24  1  0  0  0  0
  7 25  1  0  0  0  0
  8  9  1  0  0  0  0
  9 10  1  0  0  0  0
  9 26  1  0  0  0  0
  9 27  1  0  0  0  0
 10 28  1  0  0  0  0
 10 29  1  0  0  0  0
 11 12  2  0  0  0  0
 11 13  1  0  0  0  0
 13 14  1  0  0  0  0
 14 20  2  0  0  0  0
 14 15  1  0  0  0  0
 15 16  2  0  0  0  0
 15 30  1  0  0  0  0
 16 17  1  0  0  0  0
 16 31  1  0  0  0  0
 17 18  1  0  0  0  0
 17 19  2  0  0  0  0
 19 20  1  0  0  0  0
 19 32  1  0  0  0  0
 20 33  1  0  0  0  0
M  END
$$$$
