ZINC000000019853      none
 OpenBabel11202420153D

 14 13  0  0  0  0  0  0  0  0999 V2000
   33.7336   37.9382   56.2584 C   0  0  0  0  0  0  0  0  0  0  0  0
   33.1108   38.2604   57.5448 N   0  0  0  0  0  0  0  0  0  0  0  0
   33.0344   39.6529   57.9932 C   0  0  0  0  0  0  0  0  0  0  0  0
   32.6084   37.2755   58.3156 C   0  0  0  0  0  0  0  0  0  0  0  0
   32.6720   36.1193   57.9431 O   0  0  0  0  0  0  0  0  0  0  0  0
   31.9944   37.5909   59.5703 C   0  0  0  0  0  0  0  0  0  0  0  0
   31.4910   37.8495   60.5988 C   0  0  0  0  0  0  0  0  0  0  0  0
   30.6764   38.2680   62.2635 Br  0  0  0  0  0  0  0  0  0  0  0  0
   32.9775   37.9584   55.4736 H   0  0  0  0  0  0  0  0  0  0  0  0
   34.5081   38.6722   56.0357 H   0  0  0  0  0  0  0  0  0  0  0  0
   34.1786   36.9444   56.3088 H   0  0  0  0  0  0  0  0  0  0  0  0
   33.9259   39.8983   58.5704 H   0  0  0  0  0  0  0  0  0  0  0  0
   32.9701   40.3108   57.1266 H   0  0  0  0  0  0  0  0  0  0  0  0
   32.1502   39.7858   58.6167 H   0  0  0  0  0  0  0  0  0  0  0  0
  1  2  1  0  0  0  0
  1  9  1  0  0  0  0
  1 10  1  0  0  0  0
  1 11  1  0  0  0  0
  2  3  1  0  0  0  0
  2  4  1  0  0  0  0
  3 12  1  0  0  0  0
  3 13  1  0  0  0  0
  3 14  1  0  0  0  0
  4  5  2  0  0  0  0
  4  6  1  0  0  0  0
  6  7  3  0  0  0  0
  7  8  1  0  0  0  0
M  END
$$$$
