ZINC000000048554      none
 OpenBabel11202420153D

 41 42  0  0  0  0  0  0  0  0999 V2000
   35.1153   33.1832   55.1778 C   0  0  0  0  0  0  0  0  0  0  0  0
   34.4358   34.5253   54.8986 C   0  0  0  0  0  0  0  0  0  0  0  0
   33.3839   34.3461   53.8022 C   0  0  0  0  0  0  0  0  0  0  0  0
   33.7952   35.0047   56.1102 O   0  0  0  0  0  0  0  0  0  0  0  0
   33.7022   36.3400   56.2659 C   0  0  0  0  0  0  0  0  0  0  0  0
   34.1443   37.0834   55.4125 O   0  0  0  0  0  0  0  0  0  0  0  0
   33.0639   36.8990   57.4719 C   0  0  0  0  0  0  0  0  0  0  0  0
   32.9668   38.2842   57.6352 C   0  0  0  0  0  0  0  0  0  0  0  0
   32.3708   38.8025   58.7625 C   0  0  0  0  0  0  0  0  0  0  0  0
   31.8651   37.9496   59.7388 C   0  0  0  0  0  0  0  0  0  0  0  0
   31.2621   38.4782   60.8792 N   0  0  0  0  0  0  0  0  0  0  0  0
   30.2817   37.7942   61.5017 C   0  0  0  0  0  0  0  0  0  0  0  0
   29.9242   36.7188   61.0697 O   0  0  0  0  0  0  0  0  0  0  0  0
   29.6297   38.3655   62.7343 C   0  0  0  0  0  0  0  0  0  0  0  0
   30.6703   38.5662   63.8058 C   0  0  0  0  0  0  0  0  0  0  0  0
   30.5232   39.5840   64.7298 C   0  0  0  0  0  0  0  0  0  0  0  0
   31.4744   39.7649   65.7162 C   0  0  0  0  0  0  0  0  0  0  0  0
   32.5794   38.9347   65.7718 C   0  0  0  0  0  0  0  0  0  0  0  0
   33.7784   39.1660   67.0058 Cl  0  0  0  0  0  0  0  0  0  0  0  0
   32.7290   37.9197   64.8433 C   0  0  0  0  0  0  0  0  0  0  0  0
   31.7744   37.7361   63.8608 C   0  0  0  0  0  0  0  0  0  0  0  0
   31.9650   36.5707   59.5823 C   0  0  0  0  0  0  0  0  0  0  0  0
   32.5547   36.0452   58.4550 C   0  0  0  0  0  0  0  0  0  0  0  0
   34.3689   32.4592   55.5050 H   0  0  0  0  0  0  0  0  0  0  0  0
   35.5962   32.8233   54.2682 H   0  0  0  0  0  0  0  0  0  0  0  0
   35.8648   33.3108   55.9589 H   0  0  0  0  0  0  0  0  0  0  0  0
   35.1821   35.2492   54.5713 H   0  0  0  0  0  0  0  0  0  0  0  0
   32.8998   35.3023   53.6035 H   0  0  0  0  0  0  0  0  0  0  0  0
   33.8647   33.9863   52.8926 H   0  0  0  0  0  0  0  0  0  0  0  0
   32.6377   33.6222   54.1295 H   0  0  0  0  0  0  0  0  0  0  0  0
   33.3594   38.9466   56.8780 H   0  0  0  0  0  0  0  0  0  0  0  0
   32.2958   39.8724   58.8894 H   0  0  0  0  0  0  0  0  0  0  0  0
   31.5481   39.3383   61.2248 H   0  0  0  0  0  0  0  0  0  0  0  0
   28.8661   37.6761   63.0942 H   0  0  0  0  0  0  0  0  0  0  0  0
   29.1692   39.3230   62.4912 H   0  0  0  0  0  0  0  0  0  0  0  0
   29.6627   40.2348   64.6836 H   0  0  0  0  0  0  0  0  0  0  0  0
   31.3571   40.5572   66.4407 H   0  0  0  0  0  0  0  0  0  0  0  0
   33.5917   37.2713   64.8861 H   0  0  0  0  0  0  0  0  0  0  0  0
   31.8912   36.9442   63.1358 H   0  0  0  0  0  0  0  0  0  0  0  0
   31.5758   35.9117   60.3444 H   0  0  0  0  0  0  0  0  0  0  0  0
   32.6283   34.9747   58.3322 H   0  0  0  0  0  0  0  0  0  0  0  0
  1  2  1  0  0  0  0
  1 24  1  0  0  0  0
  1 25  1  0  0  0  0
  1 26  1  0  0  0  0
  2  3  1  0  0  0  0
  2  4  1  0  0  0  0
  2 27  1  0  0  0  0
  3 28  1  0  0  0  0
  3 29  1  0  0  0  0
  3 30  1  0  0  0  0
  4  5  1  0  0  0  0
  5  6  2  0  0  0  0
  5  7  1  0  0  0  0
  7 23  2  0  0  0  0
  7  8  1  0  0  0  0
  8  9  2  0  0  0  0
  8 31  1  0  0  0  0
  9 10  1  0  0  0  0
  9 32  1  0  0  0  0
 10 11  1  0  0  0  0
 10 22  2  0  0  0  0
 11 12  1  0  0  0  0
 11 33  1  0  0  0  0
 12 13  2  0  0  0  0
 12 14  1  0  0  0  0
 14 15  1  0  0  0  0
 14 34  1  0  0  0  0
 14 35  1  0  0  0  0
 15 21  2  0  0  0  0
 15 16  1  0  0  0  0
 16 17  2  0  0  0  0
 16 36  1  0  0  0  0
 17 18  1  0  0  0  0
 17 37  1  0  0  0  0
 18 19  1  0  0  0  0
 18 20  2  0  0  0  0
 20 21  1  0  0  0  0
 20 38  1  0  0  0  0
 21 39  1  0  0  0  0
 22 23  1  0  0  0  0
 22 40  1  0  0  0  0
 23 41  1  0  0  0  0
M  END
$$$$
