ZINC000000053231      none
 OpenBabel11202420153D

 44 47  0  0  0  0  0  0  0  0999 V2000
   30.2250   35.7701   60.0121 C   0  0  0  0  0  0  0  0  0  0  0  0
   31.2205   36.8428   59.9469 N   0  0  0  0  0  0  0  0  0  0  0  0
   32.0693   37.1097   58.8962 C   0  0  0  0  0  0  0  0  0  0  0  0
   32.8148   38.1690   59.2539 C   0  0  0  0  0  0  0  0  0  0  0  0
   32.4397   38.5537   60.4854 N   0  0  0  0  0  0  0  0  0  0  0  0
   31.4797   37.7667   60.9123 C   0  0  0  0  0  0  0  0  0  0  0  0
   30.6697   37.8819   62.4728 S   0  0  0  0  0  0  0  0  0  0  0  0
   31.7445   36.8152   63.4643 C   0  0  0  0  0  0  0  0  0  0  0  0
   30.9372   36.1676   64.5598 C   0  0  0  0  0  0  0  0  0  0  0  0
   30.3973   35.0992   64.3646 O   0  0  0  0  0  0  0  0  0  0  0  0
   30.8105   36.7784   65.7545 N   0  0  0  0  0  0  0  0  0  0  0  0
   30.0551   36.2033   66.7875 C   0  0  0  0  0  0  0  0  0  0  0  0
   30.4287   34.9269   67.2147 C   0  0  0  0  0  0  0  0  0  0  0  0
   29.7674   34.3179   68.2597 C   0  0  0  0  0  0  0  0  0  0  0  0
   28.7311   34.9884   68.8843 C   0  0  0  0  0  0  0  0  0  0  0  0
   28.3533   36.2377   68.4500 C   0  0  0  0  0  0  0  0  0  0  0  0
   28.9996   36.8641   67.3814 C   0  0  0  0  0  0  0  0  0  0  0  0
   28.4273   38.2127   67.0018 C   0  0  0  0  0  0  0  0  0  0  0  0
   29.1330   38.8406   65.8128 C   0  0  0  0  0  0  0  0  0  0  0  0
   30.5883   39.0955   66.1056 C   0  0  0  0  0  0  0  0  0  0  0  0
   31.0804   40.3454   66.4054 C   0  0  0  0  0  0  0  0  0  0  0  0
   32.4488   40.5006   66.5737 C   0  0  0  0  0  0  0  0  0  0  0  0
   33.2989   39.4172   66.4427 C   0  0  0  0  0  0  0  0  0  0  0  0
   32.7921   38.1592   66.1586 C   0  0  0  0  0  0  0  0  0  0  0  0
   31.4247   38.0148   66.0068 C   0  0  0  0  0  0  0  0  0  0  0  0
   29.2755   36.1310   59.6169 H   0  0  0  0  0  0  0  0  0  0  0  0
   30.5662   34.9213   59.4195 H   0  0  0  0  0  0  0  0  0  0  0  0
   30.0927   35.4597   61.0487 H   0  0  0  0  0  0  0  0  0  0  0  0
   32.1281   36.5679   57.9638 H   0  0  0  0  0  0  0  0  0  0  0  0
   33.5844   38.6320   58.6540 H   0  0  0  0  0  0  0  0  0  0  0  0
   32.5423   37.4128   63.9055 H   0  0  0  0  0  0  0  0  0  0  0  0
   32.1780   36.0438   62.8278 H   0  0  0  0  0  0  0  0  0  0  0  0
   31.2401   34.4119   66.7218 H   0  0  0  0  0  0  0  0  0  0  0  0
   30.0547   33.3295   68.5866 H   0  0  0  0  0  0  0  0  0  0  0  0
   28.2164   34.5292   69.7153 H   0  0  0  0  0  0  0  0  0  0  0  0
   27.5395   36.7457   68.9461 H   0  0  0  0  0  0  0  0  0  0  0  0
   28.5138   38.8839   67.8562 H   0  0  0  0  0  0  0  0  0  0  0  0
   27.3721   38.0887   66.7586 H   0  0  0  0  0  0  0  0  0  0  0  0
   28.6477   39.7858   65.5693 H   0  0  0  0  0  0  0  0  0  0  0  0
   29.0539   38.1693   64.9579 H   0  0  0  0  0  0  0  0  0  0  0  0
   30.4142   41.1892   66.5083 H   0  0  0  0  0  0  0  0  0  0  0  0
   32.8532   41.4740   66.8083 H   0  0  0  0  0  0  0  0  0  0  0  0
   34.3635   39.5527   66.5628 H   0  0  0  0  0  0  0  0  0  0  0  0
   33.4510   37.3093   66.0582 H   0  0  0  0  0  0  0  0  0  0  0  0
  1  2  1  0  0  0  0
  1 26  1  0  0  0  0
  1 27  1  0  0  0  0
  1 28  1  0  0  0  0
  2  6  1  0  0  0  0
  2  3  1  0  0  0  0
  3  4  2  0  0  0  0
  3 29  1  0  0  0  0
  4  5  1  0  0  0  0
  4 30  1  0  0  0  0
  5  6  2  0  0  0  0
  6  7  1  0  0  0  0
  7  8  1  0  0  0  0
  8  9  1  0  0  0  0
  8 31  1  0  0  0  0
  8 32  1  0  0  0  0
  9 10  2  0  0  0  0
  9 11  1  0  0  0  0
 11 25  1  0  0  0  0
 11 12  1  0  0  0  0
 12 17  2  0  0  0  0
 12 13  1  0  0  0  0
 13 14  2  0  0  0  0
 13 33  1  0  0  0  0
 14 15  1  0  0  0  0
 14 34  1  0  0  0  0
 15 16  2  0  0  0  0
 15 35  1  0  0  0  0
 16 17  1  0  0  0  0
 16 36  1  0  0  0  0
 17 18  1  0  0  0  0
 18 19  1  0  0  0  0
 18 37  1  0  0  0  0
 18 38  1  0  0  0  0
 19 20  1  0  0  0  0
 19 39  1  0  0  0  0
 19 40  1  0  0  0  0
 20 25  2  0  0  0  0
 20 21  1  0  0  0  0
 21 22  2  0  0  0  0
 21 41  1  0  0  0  0
 22 23  1  0  0  0  0
 22 42  1  0  0  0  0
 23 24  2  0  0  0  0
 23 43  1  0  0  0  0
 24 25  1  0  0  0  0
 24 44  1  0  0  0  0
M  END
$$$$
