ZINC000000031546      none
 OpenBabel11202420163D

 34 35  0  0  0  0  0  0  0  0999 V2000
   33.0643   35.2905   56.8700 C   0  0  0  0  0  0  0  0  0  0  0  0
   33.0847   36.7316   57.3103 C   0  0  0  0  0  0  0  0  0  0  0  0
   33.4940   37.7169   56.4306 C   0  0  0  0  0  0  0  0  0  0  0  0
   33.5141   39.0404   56.8307 C   0  0  0  0  0  0  0  0  0  0  0  0
   33.9615   40.1108   55.8688 C   0  0  0  0  0  0  0  0  0  0  0  0
   33.1243   39.3824   58.1107 C   0  0  0  0  0  0  0  0  0  0  0  0
   32.7124   38.3954   58.9965 C   0  0  0  0  0  0  0  0  0  0  0  0
   32.3167   38.7385   60.2941 N   0  0  0  0  0  0  0  0  0  0  0  0
   31.3953   37.9940   60.9367 C   0  0  0  0  0  0  0  0  0  0  0  0
   30.9089   37.0265   60.3904 O   0  0  0  0  0  0  0  0  0  0  0  0
   30.9691   38.3636   62.3342 C   0  0  0  0  0  0  0  0  0  0  0  0
   32.0382   37.5279   63.5319 S   0  0  0  0  0  0  0  0  0  0  0  0
   31.9977   38.6992   64.8477 C   0  0  0  0  0  0  0  0  0  0  0  0
   31.3447   39.8269   64.8535 N   0  0  0  0  0  0  0  0  0  0  0  0
   31.4295   40.5457   65.8861 N   0  0  0  0  0  0  0  0  0  0  0  0
   32.1562   40.1165   66.8661 C   0  0  0  0  0  0  0  0  0  0  0  0
   32.3841   40.8235   68.1773 C   0  0  0  0  0  0  0  0  0  0  0  0
   32.8343   38.5567   66.3952 S   0  0  0  0  0  0  0  0  0  0  0  0
   32.6991   37.0664   58.5936 C   0  0  0  0  0  0  0  0  0  0  0  0
   34.0279   34.8303   57.0883 H   0  0  0  0  0  0  0  0  0  0  0  0
   32.2779   34.7582   57.4052 H   0  0  0  0  0  0  0  0  0  0  0  0
   32.8722   35.2407   55.7983 H   0  0  0  0  0  0  0  0  0  0  0  0
   33.7990   37.4520   55.4290 H   0  0  0  0  0  0  0  0  0  0  0  0
   35.0377   40.2563   55.9619 H   0  0  0  0  0  0  0  0  0  0  0  0
   33.7228   39.8064   54.8498 H   0  0  0  0  0  0  0  0  0  0  0  0
   33.4475   41.0439   56.0991 H   0  0  0  0  0  0  0  0  0  0  0  0
   33.1403   40.4162   58.4227 H   0  0  0  0  0  0  0  0  0  0  0  0
   32.7056   39.5123   60.7311 H   0  0  0  0  0  0  0  0  0  0  0  0
   29.9356   38.0550   62.4924 H   0  0  0  0  0  0  0  0  0  0  0  0
   31.0503   39.4426   62.4654 H   0  0  0  0  0  0  0  0  0  0  0  0
   31.6205   40.5177   68.8925 H   0  0  0  0  0  0  0  0  0  0  0  0
   33.3693   40.5629   68.5642 H   0  0  0  0  0  0  0  0  0  0  0  0
   32.3275   41.9012   68.0238 H   0  0  0  0  0  0  0  0  0  0  0  0
   32.3838   36.2960   59.2816 H   0  0  0  0  0  0  0  0  0  0  0  0
  1  2  1  0  0  0  0
  1 20  1  0  0  0  0
  1 21  1  0  0  0  0
  1 22  1  0  0  0  0
  2 19  2  0  0  0  0
  2  3  1  0  0  0  0
  3  4  2  0  0  0  0
  3 23  1  0  0  0  0
  4  5  1  0  0  0  0
  4  6  1  0  0  0  0
  5 24  1  0  0  0  0
  5 25  1  0  0  0  0
  5 26  1  0  0  0  0
  6  7  2  0  0  0  0
  6 27  1  0  0  0  0
  7  8  1  0  0  0  0
  7 19  1  0  0  0  0
  8  9  1  0  0  0  0
  8 28  1  0  0  0  0
  9 10  2  0  0  0  0
  9 11  1  0  0  0  0
 11 12  1  0  0  0  0
 11 29  1  0  0  0  0
 11 30  1  0  0  0  0
 12 13  1  0  0  0  0
 13 18  1  0  0  0  0
 13 14  2  0  0  0  0
 14 15  1  0  0  0  0
 15 16  2  0  0  0  0
 16 17  1  0  0  0  0
 16 18  1  0  0  0  0
 17 31  1  0  0  0  0
 17 32  1  0  0  0  0
 17 33  1  0  0  0  0
 19 34  1  0  0  0  0
M  END
$$$$
