ZINC000000036483      none
 OpenBabel11202420153D

 33 35  0  0  1  0  0  0  0  0999 V2000
   28.7371   35.6104   65.4194 C   0  0  0  0  0  0  0  0  0  0  0  0
   29.0365   36.4535   64.3051 O   0  0  0  0  0  0  0  0  0  0  0  0
   30.4337   36.5864   64.0358 C   0  0  1  0  0  0  0  0  0  0  0  0
   30.9229   35.6218   64.1702 H   0  0  0  0  0  0  0  0  0  0  0  0
   30.6294   37.0556   62.6172 C   0  0  0  0  0  0  0  0  0  0  0  0
   31.6480   37.8021   62.1878 C   0  0  0  0  0  0  0  0  0  0  0  0
   31.6195   38.1067   60.8377 C   0  0  0  0  0  0  0  0  0  0  0  0
   30.5750   37.6120   60.1718 C   0  0  0  0  0  0  0  0  0  0  0  0
   29.5479   36.7055   61.2750 S   0  0  0  0  0  0  0  0  0  0  0  0
   31.0347   37.5912   64.9846 C   0  0  0  0  0  0  0  0  0  0  0  0
   32.2960   37.6002   65.4443 C   0  0  0  0  0  0  0  0  0  0  0  0
   33.3540   36.5879   65.0880 C   0  0  0  0  0  0  0  0  0  0  0  0
   32.4783   38.6644   66.2849 N   0  0  0  0  0  0  0  0  0  0  0  0
   33.3077   38.8795   66.7398 H   0  0  0  0  0  0  0  0  0  0  0  0
   31.3093   39.3843   66.3892 C   0  0  0  0  0  0  0  0  0  0  0  0
   30.9489   40.5290   67.0929 C   0  0  0  0  0  0  0  0  0  0  0  0
   29.6704   41.0287   66.9778 C   0  0  0  0  0  0  0  0  0  0  0  0
   28.7317   40.3940   66.1758 C   0  0  0  0  0  0  0  0  0  0  0  0
   29.0627   39.2660   65.4795 C   0  0  0  0  0  0  0  0  0  0  0  0
   30.3554   38.7469   65.5751 C   0  0  0  0  0  0  0  0  0  0  0  0
   29.2005   36.0176   66.3180 H   0  0  0  0  0  0  0  0  0  0  0  0
   27.6570   35.5614   65.5579 H   0  0  0  0  0  0  0  0  0  0  0  0
   29.1253   34.6092   65.2322 H   0  0  0  0  0  0  0  0  0  0  0  0
   32.4377   38.1394   62.8428 H   0  0  0  0  0  0  0  0  0  0  0  0
   32.3848   38.7003   60.3598 H   0  0  0  0  0  0  0  0  0  0  0  0
   30.3882   37.7477   59.1168 H   0  0  0  0  0  0  0  0  0  0  0  0
   33.8957   36.9243   64.2041 H   0  0  0  0  0  0  0  0  0  0  0  0
   34.0487   36.4801   65.9210 H   0  0  0  0  0  0  0  0  0  0  0  0
   32.8825   35.6271   64.8815 H   0  0  0  0  0  0  0  0  0  0  0  0
   31.6725   41.0308   67.7183 H   0  0  0  0  0  0  0  0  0  0  0  0
   29.3937   41.9197   67.5218 H   0  0  0  0  0  0  0  0  0  0  0  0
   27.7316   40.7951   66.1015 H   0  0  0  0  0  0  0  0  0  0  0  0
   28.3273   38.7775   64.8576 H   0  0  0  0  0  0  0  0  0  0  0  0
  1  2  1  0  0  0  0
  1 21  1  0  0  0  0
  1 22  1  0  0  0  0
  1 23  1  0  0  0  0
  2  3  1  0  0  0  0
  3  4  1  1  0  0  0
  3  5  1  0  0  0  0
  3 10  1  0  0  0  0
  5  9  1  0  0  0  0
  5  6  2  0  0  0  0
  6  7  1  0  0  0  0
  6 24  1  0  0  0  0
  7  8  2  0  0  0  0
  7 25  1  0  0  0  0
  8  9  1  0  0  0  0
  8 26  1  0  0  0  0
 10 20  1  0  0  0  0
 10 11  2  0  0  0  0
 11 12  1  0  0  0  0
 11 13  1  0  0  0  0
 12 27  1  0  0  0  0
 12 28  1  0  0  0  0
 12 29  1  0  0  0  0
 13 14  1  0  0  0  0
 13 15  1  0  0  0  0
 15 20  2  0  0  0  0
 15 16  1  0  0  0  0
 16 17  2  0  0  0  0
 16 30  1  0  0  0  0
 17 18  1  0  0  0  0
 17 31  1  0  0  0  0
 18 19  2  0  0  0  0
 18 32  1  0  0  0  0
 19 20  1  0  0  0  0
 19 33  1  0  0  0  0
M  END
$$$$
