ZINC000000035730      none
 OpenBabel11202420153D

 18 18  0  0  0  0  0  0  0  0999 V2000
   32.4451   33.4947   55.6442 C   0  0  0  0  0  0  0  0  0  0  0  0
   32.4765   34.9427   55.7446 O   0  0  0  0  0  0  0  0  0  0  0  0
   33.0826   35.4683   56.8283 C   0  0  0  0  0  0  0  0  0  0  0  0
   33.5714   34.7357   57.6662 O   0  0  0  0  0  0  0  0  0  0  0  0
   33.1521   36.9260   56.9965 C   0  0  0  0  0  0  0  0  0  0  0  0
   32.6294   37.6690   58.0432 C   0  0  0  0  0  0  0  0  0  0  0  0
   31.6808   37.0233   59.5463 Br  0  0  0  0  0  0  0  0  0  0  0  0
   32.9475   38.9974   57.7482 C   0  0  0  0  0  0  0  0  0  0  0  0
   33.6106   39.0110   56.6203 N   0  0  0  0  0  0  0  0  0  0  0  0
   33.7460   37.8228   56.1519 N   0  0  0  0  0  0  0  0  0  0  0  0
   34.4325   37.4804   54.9038 C   0  0  0  0  0  0  0  0  0  0  0  0
   31.9170   33.0822   56.5038 H   0  0  0  0  0  0  0  0  0  0  0  0
   31.9301   33.2050   54.7282 H   0  0  0  0  0  0  0  0  0  0  0  0
   33.4646   33.1096   55.6250 H   0  0  0  0  0  0  0  0  0  0  0  0
   32.6934   39.8598   58.3466 H   0  0  0  0  0  0  0  0  0  0  0  0
   33.7187   37.4967   54.0802 H   0  0  0  0  0  0  0  0  0  0  0  0
   35.2236   38.2057   54.7134 H   0  0  0  0  0  0  0  0  0  0  0  0
   34.8660   36.4839   54.9892 H   0  0  0  0  0  0  0  0  0  0  0  0
  1  2  1  0  0  0  0
  1 12  1  0  0  0  0
  1 13  1  0  0  0  0
  1 14  1  0  0  0  0
  2  3  1  0  0  0  0
  3  4  2  0  0  0  0
  3  5  1  0  0  0  0
  5 10  1  0  0  0  0
  5  6  2  0  0  0  0
  6  7  1  0  0  0  0
  6  8  1  0  0  0  0
  8  9  2  0  0  0  0
  8 15  1  0  0  0  0
  9 10  1  0  0  0  0
 10 11  1  0  0  0  0
 11 16  1  0  0  0  0
 11 17  1  0  0  0  0
 11 18  1  0  0  0  0
M  END
$$$$
