ZINC000000027639      none
 OpenBabel11202420153D

 27 29  0  0  0  0  0  0  0  0999 V2000
   29.8307   37.4371   62.9003 F   0  0  0  0  0  0  0  0  0  0  0  0
   30.7929   38.2835   62.3391 C   0  0  0  0  0  0  0  0  0  0  0  0
   31.9252   38.3115   63.1601 F   0  0  0  0  0  0  0  0  0  0  0  0
   30.2678   39.5752   62.2247 F   0  0  0  0  0  0  0  0  0  0  0  0
   31.1750   37.7738   60.9734 C   0  0  0  0  0  0  0  0  0  0  0  0
   32.0508   38.3095   60.1600 N   0  0  0  0  0  0  0  0  0  0  0  0
   32.0588   37.5188   59.0632 C   0  0  0  0  0  0  0  0  0  0  0  0
   32.8891   37.7074   57.8471 C   0  0  0  0  0  0  0  0  0  0  0  0
   33.3051   38.8519   57.3744 N   0  0  0  0  0  0  0  0  0  0  0  0
   34.0631   38.5899   56.2067 O   0  0  0  0  0  0  0  0  0  0  0  0
   34.0779   37.1872   56.0100 N   0  0  0  0  0  0  0  0  0  0  0  0
   33.3827   36.6402   56.9693 C   0  0  0  0  0  0  0  0  0  0  0  0
   33.1539   35.2793   57.1348 N   0  0  0  0  0  0  0  0  0  0  0  0
   33.6906   34.3648   56.2244 C   0  0  0  0  0  0  0  0  0  0  0  0
   34.5712   33.3831   56.6609 C   0  0  0  0  0  0  0  0  0  0  0  0
   35.1000   32.4812   55.7585 C   0  0  0  0  0  0  0  0  0  0  0  0
   34.7543   32.5549   54.4217 C   0  0  0  0  0  0  0  0  0  0  0  0
   33.8823   33.5344   53.9827 C   0  0  0  0  0  0  0  0  0  0  0  0
   33.3450   34.4356   54.8807 C   0  0  0  0  0  0  0  0  0  0  0  0
   31.2027   36.5540   59.2765 N   0  0  0  0  0  0  0  0  0  0  0  0
   30.6883   36.6866   60.3669 O   0  0  0  0  0  0  0  0  0  0  0  0
   32.6218   34.9643   57.8820 H   0  0  0  0  0  0  0  0  0  0  0  0
   34.8422   33.3254   57.7047 H   0  0  0  0  0  0  0  0  0  0  0  0
   35.7847   31.7179   56.0973 H   0  0  0  0  0  0  0  0  0  0  0  0
   35.1695   31.8487   53.7180 H   0  0  0  0  0  0  0  0  0  0  0  0
   33.6178   33.5919   52.9372 H   0  0  0  0  0  0  0  0  0  0  0  0
   32.6609   35.1978   54.5380 H   0  0  0  0  0  0  0  0  0  0  0  0
  1  2  1  0  0  0  0
  2  3  1  0  0  0  0
  2  4  1  0  0  0  0
  2  5  1  0  0  0  0
  5 21  1  0  0  0  0
  5  6  2  0  0  0  0
  6  7  1  0  0  0  0
  7  8  1  0  0  0  0
  7 20  2  0  0  0  0
  8 12  1  0  0  0  0
  8  9  2  0  0  0  0
  9 10  1  0  0  0  0
 10 11  1  0  0  0  0
 11 12  2  0  0  0  0
 12 13  1  0  0  0  0
 13 14  1  0  0  0  0
 13 22  1  0  0  0  0
 14 19  2  0  0  0  0
 14 15  1  0  0  0  0
 15 16  2  0  0  0  0
 15 23  1  0  0  0  0
 16 17  1  0  0  0  0
 16 24  1  0  0  0  0
 17 18  2  0  0  0  0
 17 25  1  0  0  0  0
 18 19  1  0  0  0  0
 18 26  1  0  0  0  0
 19 27  1  0  0  0  0
 20 21  1  0  0  0  0
M  END
$$$$
