ZINC000000035192      none
 OpenBabel11202420153D

 24 25  0  0  0  0  0  0  0  0999 V2000
   33.0361   35.0634   52.9610 C   0  0  0  0  0  0  0  0  0  0  0  0
   34.0570   35.1233   53.9592 O   0  0  0  0  0  0  0  0  0  0  0  0
   33.6906   35.5674   55.1910 C   0  0  0  0  0  0  0  0  0  0  0  0
   33.7605   36.9144   55.4857 C   0  0  0  0  0  0  0  0  0  0  0  0
   33.3831   37.3640   56.7549 C   0  0  0  0  0  0  0  0  0  0  0  0
   33.4458   38.7871   57.1001 C   0  0  0  0  0  0  0  0  0  0  0  0
   33.9208   39.8067   56.0971 C   0  0  0  0  0  0  0  0  0  0  0  0
   33.0650   39.1617   58.3480 C   0  0  0  0  0  0  0  0  0  0  0  0
   32.6245   38.1873   59.2689 C   0  0  0  0  0  0  0  0  0  0  0  0
   32.2856   38.5363   60.3854 O   0  0  0  0  0  0  0  0  0  0  0  0
   32.5699   36.8860   58.9463 O   0  0  0  0  0  0  0  0  0  0  0  0
   32.9344   36.4467   57.7218 C   0  0  0  0  0  0  0  0  0  0  0  0
   32.8707   35.0962   57.4064 C   0  0  0  0  0  0  0  0  0  0  0  0
   33.2457   34.6616   56.1516 C   0  0  0  0  0  0  0  0  0  0  0  0
   33.1693   32.9700   55.7688 Cl  0  0  0  0  0  0  0  0  0  0  0  0
   32.2441   34.3912   53.2913 H   0  0  0  0  0  0  0  0  0  0  0  0
   32.6241   36.0601   52.8026 H   0  0  0  0  0  0  0  0  0  0  0  0
   33.4613   34.6935   52.0281 H   0  0  0  0  0  0  0  0  0  0  0  0
   34.1056   37.6163   54.7410 H   0  0  0  0  0  0  0  0  0  0  0  0
   35.0002   39.9291   56.1868 H   0  0  0  0  0  0  0  0  0  0  0  0
   33.6760   39.4675   55.0906 H   0  0  0  0  0  0  0  0  0  0  0  0
   33.4298   40.7608   56.2886 H   0  0  0  0  0  0  0  0  0  0  0  0
   33.0987   40.2023   58.6351 H   0  0  0  0  0  0  0  0  0  0  0  0
   32.5276   34.3854   58.1436 H   0  0  0  0  0  0  0  0  0  0  0  0
  1  2  1  0  0  0  0
  1 16  1  0  0  0  0
  1 17  1  0  0  0  0
  1 18  1  0  0  0  0
  2  3  1  0  0  0  0
  3 14  2  0  0  0  0
  3  4  1  0  0  0  0
  4  5  2  0  0  0  0
  4 19  1  0  0  0  0
  5 12  1  0  0  0  0
  5  6  1  0  0  0  0
  6  7  1  0  0  0  0
  6  8  2  0  0  0  0
  7 20  1  0  0  0  0
  7 21  1  0  0  0  0
  7 22  1  0  0  0  0
  8  9  1  0  0  0  0
  8 23  1  0  0  0  0
  9 10  2  0  0  0  0
  9 11  1  0  0  0  0
 11 12  1  0  0  0  0
 12 13  2  0  0  0  0
 13 14  1  0  0  0  0
 13 24  1  0  0  0  0
 14 15  1  0  0  0  0
M  END
$$$$
