ZINC000000044671      none
 OpenBabel11202420153D

 41 44  0  0  1  0  0  0  0  0999 V2000
   31.2360   33.1316   63.2868 O   0  0  0  0  0  0  0  0  0  0  0  0
   30.9866   33.9566   62.4343 C   0  0  0  0  0  0  0  0  0  0  0  0
   31.5699   33.9784   61.0383 C   0  0  0  0  0  0  0  0  0  0  0  0
   30.9196   35.2198   60.3942 C   0  0  2  0  0  0  0  0  0  0  0  0
   30.3235   34.9344   59.5273 H   0  0  0  0  0  0  0  0  0  0  0  0
   31.9441   36.2017   60.0145 N   0  0  0  0  0  0  0  0  0  0  0  0
   31.4671   37.5688   60.2325 C   0  0  0  0  0  0  0  0  0  0  0  0
   32.5649   38.5472   59.7967 C   0  0  0  0  0  0  0  0  0  0  0  0
   32.7057   38.4510   58.2757 C   0  0  0  0  0  0  0  0  0  0  0  0
   32.7723   37.0022   57.8627 C   0  0  0  0  0  0  0  0  0  0  0  0
   33.2244   36.7065   56.5863 C   0  0  0  0  0  0  0  0  0  0  0  0
   33.2923   35.3975   56.1530 C   0  0  0  0  0  0  0  0  0  0  0  0
   32.9072   34.3714   56.9966 C   0  0  0  0  0  0  0  0  0  0  0  0
   32.4596   34.6574   58.2682 C   0  0  0  0  0  0  0  0  0  0  0  0
   32.3914   35.9792   58.7130 C   0  0  0  0  0  0  0  0  0  0  0  0
   30.0347   35.7705   61.4911 C   0  0  0  0  0  0  0  0  0  0  0  0
   29.3352   36.7564   61.4005 O   0  0  0  0  0  0  0  0  0  0  0  0
   30.1510   34.9926   62.5787 N   0  0  0  0  0  0  0  0  0  0  0  0
   29.4525   35.2439   63.7681 C   0  0  0  0  0  0  0  0  0  0  0  0
   29.6452   36.4383   64.4488 C   0  0  0  0  0  0  0  0  0  0  0  0
   28.9517   36.6852   65.6176 C   0  0  0  0  0  0  0  0  0  0  0  0
   28.0745   35.7399   66.1154 C   0  0  0  0  0  0  0  0  0  0  0  0
   27.8843   34.5466   65.4424 C   0  0  0  0  0  0  0  0  0  0  0  0
   28.5711   34.2962   64.2704 C   0  0  0  0  0  0  0  0  0  0  0  0
   31.2951   33.0752   60.4935 H   0  0  0  0  0  0  0  0  0  0  0  0
   32.6535   34.0895   61.0770 H   0  0  0  0  0  0  0  0  0  0  0  0
   30.5678   37.7411   59.6411 H   0  0  0  0  0  0  0  0  0  0  0  0
   31.2459   37.7148   61.2898 H   0  0  0  0  0  0  0  0  0  0  0  0
   32.2863   39.5629   60.0776 H   0  0  0  0  0  0  0  0  0  0  0  0
   33.5081   38.2789   60.2726 H   0  0  0  0  0  0  0  0  0  0  0  0
   33.6175   38.9597   57.9630 H   0  0  0  0  0  0  0  0  0  0  0  0
   31.8460   38.9243   57.8013 H   0  0  0  0  0  0  0  0  0  0  0  0
   33.5260   37.5061   55.9258 H   0  0  0  0  0  0  0  0  0  0  0  0
   33.6451   35.1750   55.1568 H   0  0  0  0  0  0  0  0  0  0  0  0
   32.9532   33.3470   56.6577 H   0  0  0  0  0  0  0  0  0  0  0  0
   32.1595   33.8543   58.9248 H   0  0  0  0  0  0  0  0  0  0  0  0
   30.3337   37.1755   64.0628 H   0  0  0  0  0  0  0  0  0  0  0  0
   29.0985   37.6159   66.1456 H   0  0  0  0  0  0  0  0  0  0  0  0
   27.5366   35.9334   67.0316 H   0  0  0  0  0  0  0  0  0  0  0  0
   27.1985   33.8097   65.8337 H   0  0  0  0  0  0  0  0  0  0  0  0
   28.4222   33.3643   63.7452 H   0  0  0  0  0  0  0  0  0  0  0  0
  1  2  2  0  0  0  0
  2 18  1  0  0  0  0
  2  3  1  0  0  0  0
  3  4  1  0  0  0  0
  3 25  1  0  0  0  0
  3 26  1  0  0  0  0
  4  5  1  6  0  0  0
  4  6  1  0  0  0  0
  4 16  1  0  0  0  0
  6 15  1  0  0  0  0
  6  7  1  0  0  0  0
  7  8  1  0  0  0  0
  7 27  1  0  0  0  0
  7 28  1  0  0  0  0
  8  9  1  0  0  0  0
  8 29  1  0  0  0  0
  8 30  1  0  0  0  0
  9 10  1  0  0  0  0
  9 31  1  0  0  0  0
  9 32  1  0  0  0  0
 10 15  2  0  0  0  0
 10 11  1  0  0  0  0
 11 12  2  0  0  0  0
 11 33  1  0  0  0  0
 12 13  1  0  0  0  0
 12 34  1  0  0  0  0
 13 14  2  0  0  0  0
 13 35  1  0  0  0  0
 14 15  1  0  0  0  0
 14 36  1  0  0  0  0
 16 17  2  0  0  0  0
 16 18  1  0  0  0  0
 18 19  1  0  0  0  0
 19 24  2  0  0  0  0
 19 20  1  0  0  0  0
 20 21  2  0  0  0  0
 20 37  1  0  0  0  0
 21 22  1  0  0  0  0
 21 38  1  0  0  0  0
 22 23  2  0  0  0  0
 22 39  1  0  0  0  0
 23 24  1  0  0  0  0
 23 40  1  0  0  0  0
 24 41  1  0  0  0  0
M  END
$$$$
