ZINC000000053252      none
 OpenBabel11202420153D

 36 38  0  0  0  0  0  0  0  0999 V2000
   30.9468   36.5439   68.6156 C   0  0  0  0  0  0  0  0  0  0  0  0
   31.0556   36.7665   67.1291 C   0  0  0  0  0  0  0  0  0  0  0  0
   32.1927   36.3919   66.4705 C   0  0  0  0  0  0  0  0  0  0  0  0
   32.2962   36.5911   65.0916 C   0  0  0  0  0  0  0  0  0  0  0  0
   33.2662   36.3303   64.1781 N   0  0  0  0  0  0  0  0  0  0  0  0
   32.8732   36.7179   62.9999 C   0  0  0  0  0  0  0  0  0  0  0  0
   31.6249   37.2535   63.0762 N   0  0  0  0  0  0  0  0  0  0  0  0
   30.7431   37.8704   61.8176 S   0  0  0  0  0  0  0  0  0  0  0  0
   29.5509   37.1004   61.7475 O   0  0  0  0  0  0  0  0  0  0  0  0
   30.7483   39.2823   61.9779 O   0  0  0  0  0  0  0  0  0  0  0  0
   31.6399   37.5345   60.3384 C   0  0  0  0  0  0  0  0  0  0  0  0
   32.2378   38.5687   59.6426 C   0  0  0  0  0  0  0  0  0  0  0  0
   32.9449   38.3047   58.4847 C   0  0  0  0  0  0  0  0  0  0  0  0
   33.0461   37.0076   58.0172 C   0  0  0  0  0  0  0  0  0  0  0  0
   32.4443   35.9742   58.7102 C   0  0  0  0  0  0  0  0  0  0  0  0
   31.7407   36.2378   59.8709 C   0  0  0  0  0  0  0  0  0  0  0  0
   31.0958   35.1313   60.6128 N   0  0  0  0  0  0  0  0  0  0  0  0
   30.4762   35.3635   61.6354 O   0  0  0  0  0  0  0  0  0  0  0  0
   31.1845   33.9886   60.2006 O   0  0  0  0  0  0  0  0  0  0  0  0
   31.2296   37.1872   64.3973 C   0  0  0  0  0  0  0  0  0  0  0  0
   30.0846   37.5663   65.0839 C   0  0  0  0  0  0  0  0  0  0  0  0
   30.0023   37.3549   66.4440 C   0  0  0  0  0  0  0  0  0  0  0  0
   28.7602   37.7662   67.1916 C   0  0  0  0  0  0  0  0  0  0  0  0
   30.5121   35.5625   68.8051 H   0  0  0  0  0  0  0  0  0  0  0  0
   30.3108   37.3135   69.0527 H   0  0  0  0  0  0  0  0  0  0  0  0
   31.9389   36.5945   69.0641 H   0  0  0  0  0  0  0  0  0  0  0  0
   33.0083   35.9387   67.0144 H   0  0  0  0  0  0  0  0  0  0  0  0
   33.4532   36.6275   62.0934 H   0  0  0  0  0  0  0  0  0  0  0  0
   32.1553   39.5826   60.0056 H   0  0  0  0  0  0  0  0  0  0  0  0
   33.4154   39.1121   57.9433 H   0  0  0  0  0  0  0  0  0  0  0  0
   33.5958   36.8016   57.1106 H   0  0  0  0  0  0  0  0  0  0  0  0
   32.5235   34.9608   58.3451 H   0  0  0  0  0  0  0  0  0  0  0  0
   29.2620   38.0250   64.5555 H   0  0  0  0  0  0  0  0  0  0  0  0
   28.8694   38.7932   67.5404 H   0  0  0  0  0  0  0  0  0  0  0  0
   27.8977   37.6975   66.5287 H   0  0  0  0  0  0  0  0  0  0  0  0
   28.6151   37.1058   68.0463 H   0  0  0  0  0  0  0  0  0  0  0  0
  1  2  1  0  0  0  0
  1 24  1  0  0  0  0
  1 25  1  0  0  0  0
  1 26  1  0  0  0  0
  2 22  2  0  0  0  0
  2  3  1  0  0  0  0
  3  4  2  0  0  0  0
  3 27  1  0  0  0  0
  4 20  1  0  0  0  0
  4  5  1  0  0  0  0
  5  6  2  0  0  0  0
  6  7  1  0  0  0  0
  6 28  1  0  0  0  0
  7  8  1  0  0  0  0
  7 20  1  0  0  0  0
  8  9  2  0  0  0  0
  8 10  2  0  0  0  0
  8 11  1  0  0  0  0
 11 16  2  0  0  0  0
 11 12  1  0  0  0  0
 12 13  2  0  0  0  0
 12 29  1  0  0  0  0
 13 14  1  0  0  0  0
 13 30  1  0  0  0  0
 14 15  2  0  0  0  0
 14 31  1  0  0  0  0
 15 16  1  0  0  0  0
 15 32  1  0  0  0  0
 16 17  1  0  0  0  0
 17 18  2  0  0  0  0
 17 19  2  0  0  0  0
 20 21  2  0  0  0  0
 21 22  1  0  0  0  0
 21 33  1  0  0  0  0
 22 23  1  0  0  0  0
 23 34  1  0  0  0  0
 23 35  1  0  0  0  0
 23 36  1  0  0  0  0
M  END
$$$$
