ZINC000000012063      none
 OpenBabel11202420153D

 33 36  0  0  1  0  0  0  0  0999 V2000
   31.4927   32.6189   56.8191 C   0  0  0  0  0  0  0  0  0  0  0  0
   31.9038   33.8934   57.5104 C   0  0  0  0  0  0  0  0  0  0  0  0
   31.5341   34.0789   58.7229 N   0  0  0  0  0  0  0  0  0  0  0  0
   31.8676   35.2622   59.5099 C   0  0  2  0  0  0  0  0  0  0  0  0
   32.6213   34.9991   60.2522 H   0  0  0  0  0  0  0  0  0  0  0  0
   30.6240   35.7821   60.2199 C   0  0  0  0  0  0  0  0  0  0  0  0
   30.7812   37.1702   60.8043 C   0  0  0  0  0  0  0  0  0  0  0  0
   32.1509   37.7911   60.5945 C   0  0  0  0  0  0  0  0  0  0  0  0
   32.5699   37.6190   59.1552 C   0  0  0  0  0  0  0  0  0  0  0  0
   33.0440   38.6060   58.4398 N   0  0  0  0  0  0  0  0  0  0  0  0
   33.4148   38.4325   57.1635 C   0  0  0  0  0  0  0  0  0  0  0  0
   33.9165   39.5060   56.4077 C   0  0  0  0  0  0  0  0  0  0  0  0
   34.2906   39.3069   55.1143 C   0  0  0  0  0  0  0  0  0  0  0  0
   34.1845   38.0513   54.5208 C   0  0  0  0  0  0  0  0  0  0  0  0
   33.7018   36.9872   55.2214 C   0  0  0  0  0  0  0  0  0  0  0  0
   33.3060   37.1562   56.5549 C   0  0  0  0  0  0  0  0  0  0  0  0
   32.7974   36.0861   57.3205 C   0  0  0  0  0  0  0  0  0  0  0  0
   32.4276   36.3390   58.6218 C   0  0  0  0  0  0  0  0  0  0  0  0
   32.6572   34.8040   56.8128 N   0  0  0  0  0  0  0  0  0  0  0  0
   30.9035   32.0083   57.5034 H   0  0  0  0  0  0  0  0  0  0  0  0
   30.8949   32.8590   55.9399 H   0  0  0  0  0  0  0  0  0  0  0  0
   32.3821   32.0676   56.5143 H   0  0  0  0  0  0  0  0  0  0  0  0
   29.7990   35.7973   59.5076 H   0  0  0  0  0  0  0  0  0  0  0  0
   30.3717   35.0932   61.0261 H   0  0  0  0  0  0  0  0  0  0  0  0
   30.0336   37.8223   60.3528 H   0  0  0  0  0  0  0  0  0  0  0  0
   30.5881   37.1184   61.8758 H   0  0  0  0  0  0  0  0  0  0  0  0
   32.8758   37.3009   61.2443 H   0  0  0  0  0  0  0  0  0  0  0  0
   32.1080   38.8533   60.8352 H   0  0  0  0  0  0  0  0  0  0  0  0
   34.0049   40.4864   56.8521 H   0  0  0  0  0  0  0  0  0  0  0  0
   34.6755   40.1358   54.5389 H   0  0  0  0  0  0  0  0  0  0  0  0
   34.4883   37.9197   53.4928 H   0  0  0  0  0  0  0  0  0  0  0  0
   33.6241   36.0181   54.7510 H   0  0  0  0  0  0  0  0  0  0  0  0
   33.0848   34.5544   55.9787 H   0  0  0  0  0  0  0  0  0  0  0  0
  1  2  1  0  0  0  0
  1 20  1  0  0  0  0
  1 21  1  0  0  0  0
  1 22  1  0  0  0  0
  2 19  1  0  0  0  0
  2  3  2  0  0  0  0
  3  4  1  0  0  0  0
  4  5  1  1  0  0  0
  4 18  1  0  0  0  0
  4  6  1  0  0  0  0
  6  7  1  0  0  0  0
  6 23  1  0  0  0  0
  6 24  1  0  0  0  0
  7  8  1  0  0  0  0
  7 25  1  0  0  0  0
  7 26  1  0  0  0  0
  8  9  1  0  0  0  0
  8 27  1  0  0  0  0
  8 28  1  0  0  0  0
  9 18  2  0  0  0  0
  9 10  1  0  0  0  0
 10 11  2  0  0  0  0
 11 16  1  0  0  0  0
 11 12  1  0  0  0  0
 12 13  2  0  0  0  0
 12 29  1  0  0  0  0
 13 14  1  0  0  0  0
 13 30  1  0  0  0  0
 14 15  2  0  0  0  0
 14 31  1  0  0  0  0
 15 16  1  0  0  0  0
 15 32  1  0  0  0  0
 16 17  2  0  0  0  0
 17 18  1  0  0  0  0
 17 19  1  0  0  0  0
 19 33  1  0  0  0  0
M  END
$$$$
