ZINC000000032973      none
 OpenBabel11202420153D

 35 38  0  0  0  0  0  0  0  0999 V2000
   34.8430   37.2778   54.2662 O   0  0  0  0  0  0  0  0  0  0  0  0
   34.2342   37.4282   55.3095 C   0  0  0  0  0  0  0  0  0  0  0  0
   33.7343   38.9765   55.9704 S   0  0  0  0  0  0  0  0  0  0  0  0
   32.9915   38.2263   57.3749 C   0  0  0  0  0  0  0  0  0  0  0  0
   32.3213   38.7676   58.4648 C   0  0  0  0  0  0  0  0  0  0  0  0
   31.8190   37.9391   59.4623 C   0  0  0  0  0  0  0  0  0  0  0  0
   31.9611   36.5827   59.4112 C   0  0  0  0  0  0  0  0  0  0  0  0
   31.3093   35.5697   60.6970 S   0  0  0  0  0  0  0  0  0  0  0  0
   29.9368   35.3664   60.3910 O   0  0  0  0  0  0  0  0  0  0  0  0
   32.2322   34.5038   60.8750 O   0  0  0  0  0  0  0  0  0  0  0  0
   31.3503   36.4614   62.0919 N   0  0  0  0  0  0  0  0  0  0  0  0
   30.2129   37.3093   62.4826 C   0  0  0  0  0  0  0  0  0  0  0  0
   29.8494   36.9816   63.9398 C   0  0  0  0  0  0  0  0  0  0  0  0
   31.0229   37.0818   64.7499 O   0  0  0  0  0  0  0  0  0  0  0  0
   32.0534   36.1529   64.4046 C   0  0  0  0  0  0  0  0  0  0  0  0
   32.5277   36.4337   62.9742 C   0  0  0  0  0  0  0  0  0  0  0  0
   32.6332   36.0032   58.3221 C   0  0  0  0  0  0  0  0  0  0  0  0
   32.8206   34.6159   58.1940 C   0  0  0  0  0  0  0  0  0  0  0  0
   33.4836   34.1273   57.1052 C   0  0  0  0  0  0  0  0  0  0  0  0
   33.9841   34.9597   56.1132 C   0  0  0  0  0  0  0  0  0  0  0  0
   33.8180   36.3452   56.2038 C   0  0  0  0  0  0  0  0  0  0  0  0
   33.1406   36.8501   57.3139 C   0  0  0  0  0  0  0  0  0  0  0  0
   32.1900   39.8371   58.5379 H   0  0  0  0  0  0  0  0  0  0  0  0
   31.3016   38.3815   60.3007 H   0  0  0  0  0  0  0  0  0  0  0  0
   30.4920   38.3595   62.3983 H   0  0  0  0  0  0  0  0  0  0  0  0
   29.3611   37.1021   61.8350 H   0  0  0  0  0  0  0  0  0  0  0  0
   29.4511   35.9688   63.9994 H   0  0  0  0  0  0  0  0  0  0  0  0
   29.1001   37.6889   64.2954 H   0  0  0  0  0  0  0  0  0  0  0  0
   31.6633   35.1370   64.4660 H   0  0  0  0  0  0  0  0  0  0  0  0
   32.8905   36.2637   65.0940 H   0  0  0  0  0  0  0  0  0  0  0  0
   33.2094   35.6465   62.6523 H   0  0  0  0  0  0  0  0  0  0  0  0
   33.0359   37.3974   62.9385 H   0  0  0  0  0  0  0  0  0  0  0  0
   32.4440   33.9430   58.9500 H   0  0  0  0  0  0  0  0  0  0  0  0
   33.6237   33.0604   57.0130 H   0  0  0  0  0  0  0  0  0  0  0  0
   34.5036   34.5350   55.2669 H   0  0  0  0  0  0  0  0  0  0  0  0
  1  2  2  0  0  0  0
  2 21  1  0  0  0  0
  2  3  1  0  0  0  0
  3  4  1  0  0  0  0
  4 22  2  0  0  0  0
  4  5  1  0  0  0  0
  5  6  2  0  0  0  0
  5 23  1  0  0  0  0
  6  7  1  0  0  0  0
  6 24  1  0  0  0  0
  7  8  1  0  0  0  0
  7 17  2  0  0  0  0
  8  9  2  0  0  0  0
  8 10  2  0  0  0  0
  8 11  1  0  0  0  0
 11 16  1  0  0  0  0
 11 12  1  0  0  0  0
 12 13  1  0  0  0  0
 12 25  1  0  0  0  0
 12 26  1  0  0  0  0
 13 14  1  0  0  0  0
 13 27  1  0  0  0  0
 13 28  1  0  0  0  0
 14 15  1  0  0  0  0
 15 16  1  0  0  0  0
 15 29  1  0  0  0  0
 15 30  1  0  0  0  0
 16 31  1  0  0  0  0
 16 32  1  0  0  0  0
 17 22  1  0  0  0  0
 17 18  1  0  0  0  0
 18 19  2  0  0  0  0
 18 33  1  0  0  0  0
 19 20  1  0  0  0  0
 19 34  1  0  0  0  0
 20 21  2  0  0  0  0
 20 35  1  0  0  0  0
 21 22  1  0  0  0  0
M  END
$$$$
