ZINC000000037384      none
 OpenBabel11202420153D

 30 31  0  0  1  0  0  0  0  0999 V2000
   34.0644   37.3932   55.1150 C   0  0  0  0  0  0  0  0  0  0  0  0
   33.5703   37.9517   56.4245 C   0  0  0  0  0  0  0  0  0  0  0  0
   33.8406   39.1850   56.9061 C   0  0  0  0  0  0  0  0  0  0  0  0
   33.1844   39.2990   58.1417 C   0  0  0  0  0  0  0  0  0  0  0  0
   32.5463   38.1114   58.3582 C   0  0  0  0  0  0  0  0  0  0  0  0
   31.7332   37.7711   59.5304 C   0  0  0  0  0  0  0  0  0  0  0  0
   31.2116   36.6747   59.6116 O   0  0  0  0  0  0  0  0  0  0  0  0
   31.5638   38.6727   60.5178 N   0  0  0  0  0  0  0  0  0  0  0  0
   30.7568   38.3306   61.6916 C   0  0  0  0  0  0  0  0  0  0  0  0
   31.6536   37.7069   62.7629 C   0  0  2  0  0  0  0  0  0  0  0  0
   32.6089   38.2298   62.8084 H   0  0  0  0  0  0  0  0  0  0  0  0
   31.8754   36.2061   62.4717 C   0  0  0  0  0  0  0  0  0  0  0  0
   31.8806   35.5491   63.8702 C   0  0  0  0  0  0  0  0  0  0  0  0
   31.6613   36.7307   64.8409 C   0  0  0  0  0  0  0  0  0  0  0  0
   30.9991   37.7428   64.0498 O   0  0  0  0  0  0  0  0  0  0  0  0
   32.7901   37.3078   57.3023 O   0  0  0  0  0  0  0  0  0  0  0  0
   33.6889   36.3778   54.9882 H   0  0  0  0  0  0  0  0  0  0  0  0
   33.7074   38.0175   54.2958 H   0  0  0  0  0  0  0  0  0  0  0  0
   35.1543   37.3804   55.1137 H   0  0  0  0  0  0  0  0  0  0  0  0
   34.4445   39.9422   56.4282 H   0  0  0  0  0  0  0  0  0  0  0  0
   33.1855   40.1587   58.7954 H   0  0  0  0  0  0  0  0  0  0  0  0
   31.9797   39.5466   60.4531 H   0  0  0  0  0  0  0  0  0  0  0  0
   30.2910   39.2328   62.0878 H   0  0  0  0  0  0  0  0  0  0  0  0
   29.9832   37.6179   61.4056 H   0  0  0  0  0  0  0  0  0  0  0  0
   31.0600   35.8099   61.8667 H   0  0  0  0  0  0  0  0  0  0  0  0
   32.8312   36.0513   61.9712 H   0  0  0  0  0  0  0  0  0  0  0  0
   31.0676   34.8281   63.9565 H   0  0  0  0  0  0  0  0  0  0  0  0
   32.8401   35.0693   64.0632 H   0  0  0  0  0  0  0  0  0  0  0  0
   31.0283   36.4251   65.6739 H   0  0  0  0  0  0  0  0  0  0  0  0
   32.6178   37.1024   65.2085 H   0  0  0  0  0  0  0  0  0  0  0  0
  1  2  1  0  0  0  0
  1 17  1  0  0  0  0
  1 18  1  0  0  0  0
  1 19  1  0  0  0  0
  2 16  1  0  0  0  0
  2  3  2  0  0  0  0
  3  4  1  0  0  0  0
  3 20  1  0  0  0  0
  4  5  2  0  0  0  0
  4 21  1  0  0  0  0
  5  6  1  0  0  0  0
  5 16  1  0  0  0  0
  6  7  2  0  0  0  0
  6  8  1  0  0  0  0
  8  9  1  0  0  0  0
  8 22  1  0  0  0  0
  9 10  1  0  0  0  0
  9 23  1  0  0  0  0
  9 24  1  0  0  0  0
 10 11  1  1  0  0  0
 10 15  1  0  0  0  0
 10 12  1  0  0  0  0
 12 13  1  0  0  0  0
 12 25  1  0  0  0  0
 12 26  1  0  0  0  0
 13 14  1  0  0  0  0
 13 27  1  0  0  0  0
 13 28  1  0  0  0  0
 14 15  1  0  0  0  0
 14 29  1  0  0  0  0
 14 30  1  0  0  0  0
M  END
$$$$
