ZINC000000003848      none
 OpenBabel11202420153D

 39 42  0  0  1  0  0  0  0  0999 V2000
   33.2285   38.3864   66.4492 C   0  0  0  0  0  0  0  0  0  0  0  0
   31.9423   37.5616   66.3690 C   0  0  2  0  0  0  0  0  0  0  0  0
   31.3945   37.6581   67.3065 H   0  0  0  0  0  0  0  0  0  0  0  0
   32.2991   36.0926   66.1436 C   0  0  0  0  0  0  0  0  0  0  0  0
   31.0756   35.3373   65.6843 C   0  0  0  0  0  0  0  0  0  0  0  0
   30.4550   34.4400   66.5256 C   0  0  0  0  0  0  0  0  0  0  0  0
   29.3489   33.7256   66.0903 C   0  0  0  0  0  0  0  0  0  0  0  0
   28.8613   33.9144   64.7975 C   0  0  0  0  0  0  0  0  0  0  0  0
   29.4726   34.8224   63.9534 C   0  0  0  0  0  0  0  0  0  0  0  0
   30.5828   35.5452   64.3914 C   0  0  0  0  0  0  0  0  0  0  0  0
   31.2182   36.5394   63.4993 C   0  0  0  0  0  0  0  0  0  0  0  0
   31.5909   36.1738   62.1142 C   0  0  0  0  0  0  0  0  0  0  0  0
   31.5830   37.1421   61.1093 C   0  0  0  0  0  0  0  0  0  0  0  0
   31.9356   36.7999   59.8216 C   0  0  0  0  0  0  0  0  0  0  0  0
   32.2882   35.4891   59.5210 C   0  0  0  0  0  0  0  0  0  0  0  0
   32.6393   35.1442   58.2147 N   0  0  0  0  0  0  0  0  0  0  0  0
   32.2915   34.5210   60.5190 C   0  0  0  0  0  0  0  0  0  0  0  0
   31.9453   34.8588   61.8096 C   0  0  0  0  0  0  0  0  0  0  0  0
   31.4470   37.7458   63.9505 N   0  0  0  0  0  0  0  0  0  0  0  0
   31.1170   38.0628   65.2761 N   0  0  0  0  0  0  0  0  0  0  0  0
   27.7832   33.0963   64.6152 O   0  0  0  0  0  0  0  0  0  0  0  0
   27.3639   32.7135   65.9382 C   0  0  0  0  0  0  0  0  0  0  0  0
   28.5720   32.7943   66.7172 O   0  0  0  0  0  0  0  0  0  0  0  0
   32.9788   39.4319   66.6297 H   0  0  0  0  0  0  0  0  0  0  0  0
   33.8482   38.0147   67.2652 H   0  0  0  0  0  0  0  0  0  0  0  0
   33.7745   38.3001   65.5098 H   0  0  0  0  0  0  0  0  0  0  0  0
   33.0765   36.0206   65.3830 H   0  0  0  0  0  0  0  0  0  0  0  0
   32.6626   35.6604   67.0760 H   0  0  0  0  0  0  0  0  0  0  0  0
   30.8310   34.2925   67.5272 H   0  0  0  0  0  0  0  0  0  0  0  0
   29.0908   34.9723   62.9544 H   0  0  0  0  0  0  0  0  0  0  0  0
   31.3051   38.1597   61.3414 H   0  0  0  0  0  0  0  0  0  0  0  0
   31.9342   37.5500   59.0446 H   0  0  0  0  0  0  0  0  0  0  0  0
   32.8852   34.2299   58.0039 H   0  0  0  0  0  0  0  0  0  0  0  0
   32.6373   35.8189   57.5178 H   0  0  0  0  0  0  0  0  0  0  0  0
   32.5658   33.5035   60.2827 H   0  0  0  0  0  0  0  0  0  0  0  0
   31.9487   34.1066   62.5846 H   0  0  0  0  0  0  0  0  0  0  0  0
   30.3420   38.6143   65.4657 H   0  0  0  0  0  0  0  0  0  0  0  0
   26.9763   31.6948   65.9374 H   0  0  0  0  0  0  0  0  0  0  0  0
   26.6156   33.4086   66.3189 H   0  0  0  0  0  0  0  0  0  0  0  0
  1  2  1  0  0  0  0
  1 24  1  0  0  0  0
  1 25  1  0  0  0  0
  1 26  1  0  0  0  0
  2  3  1  1  0  0  0
  2 20  1  0  0  0  0
  2  4  1  0  0  0  0
  4  5  1  0  0  0  0
  4 27  1  0  0  0  0
  4 28  1  0  0  0  0
  5 10  2  0  0  0  0
  5  6  1  0  0  0  0
  6  7  2  0  0  0  0
  6 29  1  0  0  0  0
  7 23  1  0  0  0  0
  7  8  1  0  0  0  0
  8  9  2  0  0  0  0
  8 21  1  0  0  0  0
  9 10  1  0  0  0  0
  9 30  1  0  0  0  0
 10 11  1  0  0  0  0
 11 12  1  0  0  0  0
 11 19  2  0  0  0  0
 12 18  2  0  0  0  0
 12 13  1  0  0  0  0
 13 14  2  0  0  0  0
 13 31  1  0  0  0  0
 14 15  1  0  0  0  0
 14 32  1  0  0  0  0
 15 16  1  0  0  0  0
 15 17  2  0  0  0  0
 16 33  1  0  0  0  0
 16 34  1  0  0  0  0
 17 18  1  0  0  0  0
 17 35  1  0  0  0  0
 18 36  1  0  0  0  0
 19 20  1  0  0  0  0
 20 37  1  0  0  0  0
 21 22  1  0  0  0  0
 22 23  1  0  0  0  0
 22 38  1  0  0  0  0
 22 39  1  0  0  0  0
M  END
$$$$
