ZINC000000034174      none
 OpenBabel11202420153D

 34 36  0  0  1  0  0  0  0  0999 V2000
   33.9783   36.4951   54.5984 C   0  0  0  0  0  0  0  0  0  0  0  0
   34.0568   37.8170   55.1356 O   0  0  0  0  0  0  0  0  0  0  0  0
   33.6585   37.9840   56.4248 C   0  0  0  0  0  0  0  0  0  0  0  0
   33.7084   39.2414   57.0085 C   0  0  0  0  0  0  0  0  0  0  0  0
   33.3040   39.4118   58.3178 C   0  0  0  0  0  0  0  0  0  0  0  0
   32.8470   38.3242   59.0500 C   0  0  0  0  0  0  0  0  0  0  0  0
   32.4365   38.4963   60.3786 N   0  0  0  0  0  0  0  0  0  0  0  0
   31.4818   37.6991   60.8975 C   0  0  0  0  0  0  0  0  0  0  0  0
   30.9778   36.8326   60.2145 O   0  0  0  0  0  0  0  0  0  0  0  0
   31.0403   37.8842   62.3264 C   0  0  2  0  0  0  0  0  0  0  0  0
   30.2120   38.5765   62.4772 H   0  0  0  0  0  0  0  0  0  0  0  0
   32.1172   37.8222   63.4132 C   0  0  0  0  0  0  0  0  0  0  0  0
   31.1253   36.6757   63.2521 C   0  0  0  0  0  0  0  0  0  0  0  0
   30.0848   36.1641   64.2542 C   0  0  0  0  0  0  0  0  0  0  0  0
   29.9763   34.9076   63.3720 C   0  0  0  0  0  0  0  0  0  0  0  0
   31.4057   35.2129   62.8908 C   0  0  0  0  0  0  0  0  0  0  0  0
   32.8024   37.0649   58.4669 C   0  0  0  0  0  0  0  0  0  0  0  0
   33.2021   36.8969   57.1558 C   0  0  0  0  0  0  0  0  0  0  0  0
   34.6050   35.8257   55.1876 H   0  0  0  0  0  0  0  0  0  0  0  0
   32.9450   36.1497   54.6327 H   0  0  0  0  0  0  0  0  0  0  0  0
   34.3250   36.5017   53.5650 H   0  0  0  0  0  0  0  0  0  0  0  0
   34.0638   40.0873   56.4389 H   0  0  0  0  0  0  0  0  0  0  0  0
   33.3428   40.3908   58.7721 H   0  0  0  0  0  0  0  0  0  0  0  0
   32.8395   39.1891   60.9248 H   0  0  0  0  0  0  0  0  0  0  0  0
   31.9972   38.4739   64.2787 H   0  0  0  0  0  0  0  0  0  0  0  0
   33.1448   37.6477   63.0944 H   0  0  0  0  0  0  0  0  0  0  0  0
   30.4922   35.9681   65.2458 H   0  0  0  0  0  0  0  0  0  0  0  0
   29.1726   36.7601   64.2799 H   0  0  0  0  0  0  0  0  0  0  0  0
   29.2249   34.9894   62.5867 H   0  0  0  0  0  0  0  0  0  0  0  0
   29.8961   33.9812   63.9406 H   0  0  0  0  0  0  0  0  0  0  0  0
   31.5527   35.0465   61.8236 H   0  0  0  0  0  0  0  0  0  0  0  0
   32.1821   34.7527   63.5021 H   0  0  0  0  0  0  0  0  0  0  0  0
   32.4512   36.2176   59.0373 H   0  0  0  0  0  0  0  0  0  0  0  0
   33.1639   35.9181   56.7009 H   0  0  0  0  0  0  0  0  0  0  0  0
  1  2  1  0  0  0  0
  1 19  1  0  0  0  0
  1 20  1  0  0  0  0
  1 21  1  0  0  0  0
  2  3  1  0  0  0  0
  3 18  2  0  0  0  0
  3  4  1  0  0  0  0
  4  5  2  0  0  0  0
  4 22  1  0  0  0  0
  5  6  1  0  0  0  0
  5 23  1  0  0  0  0
  6  7  1  0  0  0  0
  6 17  2  0  0  0  0
  7  8  1  0  0  0  0
  7 24  1  0  0  0  0
  8  9  2  0  0  0  0
  8 10  1  0  0  0  0
 10 11  1  1  0  0  0
 10 13  1  0  0  0  0
 10 12  1  0  0  0  0
 12 13  1  0  0  0  0
 12 25  1  0  0  0  0
 12 26  1  0  0  0  0
 13 16  1  0  0  0  0
 13 14  1  0  0  0  0
 14 15  1  0  0  0  0
 14 27  1  0  0  0  0
 14 28  1  0  0  0  0
 15 16  1  0  0  0  0
 15 29  1  0  0  0  0
 15 30  1  0  0  0  0
 16 31  1  0  0  0  0
 16 32  1  0  0  0  0
 17 18  1  0  0  0  0
 17 33  1  0  0  0  0
 18 34  1  0  0  0  0
M  END
$$$$
