ZINC000000032774      none
 OpenBabel11202420153D

 28 30  0  0  0  0  0  0  0  0999 V2000
   33.2382   36.2641   62.9444 O   0  0  0  0  0  0  0  0  0  0  0  0
   32.6862   36.8349   63.8679 N   0  0  0  0  0  0  0  0  0  0  0  0
   32.9858   36.5645   65.0172 O   0  0  0  0  0  0  0  0  0  0  0  0
   31.6517   37.8574   63.5937 C   0  0  0  0  0  0  0  0  0  0  0  0
   30.9646   38.5621   64.5194 C   0  0  0  0  0  0  0  0  0  0  0  0
   30.1176   39.3886   63.8695 N   0  0  0  0  0  0  0  0  0  0  0  0
   29.5007   40.0120   64.2838 H   0  0  0  0  0  0  0  0  0  0  0  0
   30.2887   39.1936   62.4931 N   0  0  0  0  0  0  0  0  0  0  0  0
   31.2082   38.2682   62.3221 C   0  0  0  0  0  0  0  0  0  0  0  0
   31.6968   37.7524   61.0176 C   0  0  0  0  0  0  0  0  0  0  0  0
   31.6346   36.4166   60.5751 C   0  0  0  0  0  0  0  0  0  0  0  0
   32.1581   36.3592   59.3786 N   0  0  0  0  0  0  0  0  0  0  0  0
   32.5813   37.6437   59.0162 N   0  0  0  0  0  0  0  0  0  0  0  0
   33.1975   37.9958   57.8077 C   0  0  0  0  0  0  0  0  0  0  0  0
   33.5695   39.3131   57.5743 C   0  0  0  0  0  0  0  0  0  0  0  0
   34.1769   39.6569   56.3826 C   0  0  0  0  0  0  0  0  0  0  0  0
   34.4148   38.6909   55.4221 C   0  0  0  0  0  0  0  0  0  0  0  0
   34.0455   37.3782   55.6515 C   0  0  0  0  0  0  0  0  0  0  0  0
   33.4376   37.0281   56.8413 C   0  0  0  0  0  0  0  0  0  0  0  0
   32.2874   38.4862   60.0313 C   0  0  0  0  0  0  0  0  0  0  0  0
   31.0741   38.4793   65.5907 H   0  0  0  0  0  0  0  0  0  0  0  0
   31.2216   35.5849   61.1265 H   0  0  0  0  0  0  0  0  0  0  0  0
   33.3844   40.0680   58.3242 H   0  0  0  0  0  0  0  0  0  0  0  0
   34.4669   40.6813   56.2007 H   0  0  0  0  0  0  0  0  0  0  0  0
   34.8858   38.9629   54.4891 H   0  0  0  0  0  0  0  0  0  0  0  0
   34.2321   36.6259   54.8993 H   0  0  0  0  0  0  0  0  0  0  0  0
   33.1496   36.0027   57.0201 H   0  0  0  0  0  0  0  0  0  0  0  0
   32.4845   39.5478   60.0567 H   0  0  0  0  0  0  0  0  0  0  0  0
  1  2  2  0  0  0  0
  2  3  2  0  0  0  0
  2  4  1  0  0  0  0
  4  9  1  0  0  0  0
  4  5  2  0  0  0  0
  5  6  1  0  0  0  0
  5 21  1  0  0  0  0
  6  7  1  0  0  0  0
  6  8  1  0  0  0  0
  8  9  2  0  0  0  0
  9 10  1  0  0  0  0
 10 20  2  0  0  0  0
 10 11  1  0  0  0  0
 11 12  2  0  0  0  0
 11 22  1  0  0  0  0
 12 13  1  0  0  0  0
 13 14  1  0  0  0  0
 13 20  1  0  0  0  0
 14 19  2  0  0  0  0
 14 15  1  0  0  0  0
 15 16  2  0  0  0  0
 15 23  1  0  0  0  0
 16 17  1  0  0  0  0
 16 24  1  0  0  0  0
 17 18  2  0  0  0  0
 17 25  1  0  0  0  0
 18 19  1  0  0  0  0
 18 26  1  0  0  0  0
 19 27  1  0  0  0  0
 20 28  1  0  0  0  0
M  END
$$$$
