ZINC000000005543      none
 OpenBabel11202420153D

 27 29  0  0  0  0  0  0  0  0999 V2000
   32.6910   39.0036   59.7799 N   0  0  0  0  0  0  0  0  0  0  0  0
   33.0905   38.7579   58.4887 C   0  0  0  0  0  0  0  0  0  0  0  0
   32.9811   37.5423   58.0080 N   0  0  0  0  0  0  0  0  0  0  0  0
   33.3615   37.2590   56.7464 C   0  0  0  0  0  0  0  0  0  0  0  0
   33.3664   36.0814   55.9672 C   0  0  0  0  0  0  0  0  0  0  0  0
   32.8970   34.7208   56.4135 C   0  0  0  0  0  0  0  0  0  0  0  0
   33.6799   33.6565   55.6886 C   0  0  0  0  0  0  0  0  0  0  0  0
   33.2734   33.1300   54.4747 C   0  0  0  0  0  0  0  0  0  0  0  0
   34.0807   32.1967   53.9682 C   0  0  0  0  0  0  0  0  0  0  0  0
   35.4404   31.9406   55.0542 S   0  0  0  0  0  0  0  0  0  0  0  0
   34.8202   33.1547   56.1654 C   0  0  0  0  0  0  0  0  0  0  0  0
   33.8657   36.3897   54.7532 C   0  0  0  0  0  0  0  0  0  0  0  0
   34.1828   37.7130   54.7152 N   0  0  0  0  0  0  0  0  0  0  0  0
   34.5595   38.1822   53.9544 H   0  0  0  0  0  0  0  0  0  0  0  0
   33.8858   38.2750   55.9389 C   0  0  0  0  0  0  0  0  0  0  0  0
   33.9906   39.5742   56.4696 C   0  0  0  0  0  0  0  0  0  0  0  0
   34.4375   40.4885   55.7970 O   0  0  0  0  0  0  0  0  0  0  0  0
   33.5901   39.7849   57.7425 N   0  0  0  0  0  0  0  0  0  0  0  0
   33.6579   40.6723   58.1284 H   0  0  0  0  0  0  0  0  0  0  0  0
   32.3340   38.2832   60.3226 H   0  0  0  0  0  0  0  0  0  0  0  0
   32.7659   39.8975   60.1490 H   0  0  0  0  0  0  0  0  0  0  0  0
   33.0514   34.6173   57.4875 H   0  0  0  0  0  0  0  0  0  0  0  0
   31.8366   34.6097   56.1867 H   0  0  0  0  0  0  0  0  0  0  0  0
   32.3707   33.4502   53.9757 H   0  0  0  0  0  0  0  0  0  0  0  0
   33.9233   31.6775   53.0344 H   0  0  0  0  0  0  0  0  0  0  0  0
   35.2895   33.4477   57.0929 H   0  0  0  0  0  0  0  0  0  0  0  0
   33.9942   35.6942   53.9370 H   0  0  0  0  0  0  0  0  0  0  0  0
  1  2  1  0  0  0  0
  1 20  1  0  0  0  0
  1 21  1  0  0  0  0
  2 18  1  0  0  0  0
  2  3  2  0  0  0  0
  3  4  1  0  0  0  0
  4 15  2  0  0  0  0
  4  5  1  0  0  0  0
  5  6  1  0  0  0  0
  5 12  2  0  0  0  0
  6  7  1  0  0  0  0
  6 22  1  0  0  0  0
  6 23  1  0  0  0  0
  7 11  2  0  0  0  0
  7  8  1  0  0  0  0
  8  9  2  0  0  0  0
  8 24  1  0  0  0  0
  9 10  1  0  0  0  0
  9 25  1  0  0  0  0
 10 11  1  0  0  0  0
 11 26  1  0  0  0  0
 12 13  1  0  0  0  0
 12 27  1  0  0  0  0
 13 14  1  0  0  0  0
 13 15  1  0  0  0  0
 15 16  1  0  0  0  0
 16 17  2  0  0  0  0
 16 18  1  0  0  0  0
 18 19  1  0  0  0  0
M  END
$$$$
