ZINC000000034284      none
 OpenBabel11202420153D

 38 40  0  0  1  0  0  0  0  0999 V2000
   32.8564   37.1572   66.0388 C   0  0  0  0  0  0  0  0  0  0  0  0
   32.0298   36.9805   64.7912 C   0  0  0  0  0  0  0  0  0  0  0  0
   32.1446   36.0197   63.9689 N   0  0  0  0  0  0  0  0  0  0  0  0
   31.2655   36.0755   62.8892 N   0  0  0  0  0  0  0  0  0  0  0  0
   31.1933   35.1764   61.8877 C   0  0  0  0  0  0  0  0  0  0  0  0
   30.3856   35.3262   60.9953 O   0  0  0  0  0  0  0  0  0  0  0  0
   32.1162   33.9851   61.8768 C   0  0  0  0  0  0  0  0  0  0  0  0
   31.7769   32.9725   60.4154 S   0  0  0  0  0  0  0  0  0  0  0  0
   32.1093   34.1474   59.1451 C   0  0  0  0  0  0  0  0  0  0  0  0
   32.0190   33.9396   57.8505 N   0  0  0  0  0  0  0  0  0  0  0  0
   32.3348   35.0166   57.2214 N   0  0  0  0  0  0  0  0  0  0  0  0
   32.6386   35.9534   58.0867 C   0  0  0  0  0  0  0  0  0  0  0  0
   33.0536   37.3349   57.7697 C   0  0  0  0  0  0  0  0  0  0  0  0
   33.5627   37.6618   56.5064 C   0  0  0  0  0  0  0  0  0  0  0  0
   33.9336   38.9652   56.2523 C   0  0  0  0  0  0  0  0  0  0  0  0
   33.8237   39.8950   57.1824 N   0  0  0  0  0  0  0  0  0  0  0  0
   33.3541   39.6292   58.3868 C   0  0  0  0  0  0  0  0  0  0  0  0
   32.9546   38.3538   58.7257 C   0  0  0  0  0  0  0  0  0  0  0  0
   32.4965   35.4243   59.3225 O   0  0  0  0  0  0  0  0  0  0  0  0
   30.4328   37.2826   63.0205 C   0  0  1  0  0  0  0  0  0  0  0  0
   30.6577   38.2249   61.8362 C   0  0  0  0  0  0  0  0  0  0  0  0
   29.0519   36.9329   63.1331 O   0  0  0  0  0  0  0  0  0  0  0  0
   30.9386   37.9202   64.3305 C   0  0  0  0  0  0  0  0  0  0  0  0
   33.5660   36.3343   66.1242 H   0  0  0  0  0  0  0  0  0  0  0  0
   33.3992   38.1009   65.9843 H   0  0  0  0  0  0  0  0  0  0  0  0
   32.2019   37.1644   66.9104 H   0  0  0  0  0  0  0  0  0  0  0  0
   31.9536   33.3911   62.7761 H   0  0  0  0  0  0  0  0  0  0  0  0
   33.1508   34.3272   61.8495 H   0  0  0  0  0  0  0  0  0  0  0  0
   33.6597   36.9052   55.7419 H   0  0  0  0  0  0  0  0  0  0  0  0
   34.3235   39.2282   55.2800 H   0  0  0  0  0  0  0  0  0  0  0  0
   33.2814   40.4218   59.1169 H   0  0  0  0  0  0  0  0  0  0  0  0
   32.5717   38.1436   59.7135 H   0  0  0  0  0  0  0  0  0  0  0  0
   30.3700   37.7228   60.9126 H   0  0  0  0  0  0  0  0  0  0  0  0
   30.0524   39.1221   61.9658 H   0  0  0  0  0  0  0  0  0  0  0  0
   31.7109   38.5012   61.7867 H   0  0  0  0  0  0  0  0  0  0  0  0
   28.7014   36.4621   62.3645 H   0  0  0  0  0  0  0  0  0  0  0  0
   30.1391   37.9703   65.0697 H   0  0  0  0  0  0  0  0  0  0  0  0
   31.3443   38.9136   64.1391 H   0  0  0  0  0  0  0  0  0  0  0  0
  1  2  1  0  0  0  0
  1 24  1  0  0  0  0
  1 25  1  0  0  0  0
  1 26  1  0  0  0  0
  2 23  1  0  0  0  0
  2  3  2  0  0  0  0
  3  4  1  0  0  0  0
  4  5  1  0  0  0  0
  4 20  1  0  0  0  0
  5  6  2  0  0  0  0
  5  7  1  0  0  0  0
  7  8  1  0  0  0  0
  7 27  1  0  0  0  0
  7 28  1  0  0  0  0
  8  9  1  0  0  0  0
  9 19  1  0  0  0  0
  9 10  2  0  0  0  0
 10 11  1  0  0  0  0
 11 12  2  0  0  0  0
 12 13  1  0  0  0  0
 12 19  1  0  0  0  0
 13 18  2  0  0  0  0
 13 14  1  0  0  0  0
 14 15  2  0  0  0  0
 14 29  1  0  0  0  0
 15 16  1  0  0  0  0
 15 30  1  0  0  0  0
 16 17  2  0  0  0  0
 17 18  1  0  0  0  0
 17 31  1  0  0  0  0
 18 32  1  0  0  0  0
 20 21  1  0  0  0  0
 20 22  1  1  0  0  0
 20 23  1  0  0  0  0
 21 33  1  0  0  0  0
 21 34  1  0  0  0  0
 21 35  1  0  0  0  0
 22 36  1  0  0  0  0
 23 37  1  0  0  0  0
 23 38  1  0  0  0  0
M  END
$$$$
