ZINC000000003764      none
 OpenBabel11202420153D

 34 35  0  0  0  0  0  0  0  0999 V2000
   32.3242   35.7998   52.3608 C   0  0  0  0  0  0  0  0  0  0  0  0
   33.5457   35.8226   53.1018 O   0  0  0  0  0  0  0  0  0  0  0  0
   33.8319   36.9628   53.7856 C   0  0  0  0  0  0  0  0  0  0  0  0
   33.4084   37.1081   55.0938 C   0  0  0  0  0  0  0  0  0  0  0  0
   33.6977   38.2834   55.7943 C   0  0  0  0  0  0  0  0  0  0  0  0
   33.2435   38.4442   57.1848 C   0  0  0  0  0  0  0  0  0  0  0  0
   32.9183   37.3607   57.9168 C   0  0  0  0  0  0  0  0  0  0  0  0
   32.4661   37.5208   59.3013 C   0  0  0  0  0  0  0  0  0  0  0  0
   32.1033   36.5164   60.1821 C   0  0  0  0  0  0  0  0  0  0  0  0
   31.7584   37.2116   61.3569 C   0  0  0  0  0  0  0  0  0  0  0  0
   31.2836   36.6072   62.6531 C   0  0  0  0  0  0  0  0  0  0  0  0
   31.9287   38.4792   61.1061 N   0  0  0  0  0  0  0  0  0  0  0  0
   32.3234   38.6750   59.9807 O   0  0  0  0  0  0  0  0  0  0  0  0
   34.4202   39.3054   55.1703 C   0  0  0  0  0  0  0  0  0  0  0  0
   34.8459   39.1507   53.8640 C   0  0  0  0  0  0  0  0  0  0  0  0
   35.5485   40.1441   53.2564 O   0  0  0  0  0  0  0  0  0  0  0  0
   34.7958   41.1337   52.5519 C   0  0  0  0  0  0  0  0  0  0  0  0
   34.5556   37.9798   53.1697 C   0  0  0  0  0  0  0  0  0  0  0  0
   34.9755   37.8312   51.8847 O   0  0  0  0  0  0  0  0  0  0  0  0
   32.2185   34.8353   51.8639 H   0  0  0  0  0  0  0  0  0  0  0  0
   31.4848   35.9527   53.0393 H   0  0  0  0  0  0  0  0  0  0  0  0
   32.3371   36.5938   51.6141 H   0  0  0  0  0  0  0  0  0  0  0  0
   32.8506   36.3169   55.5726 H   0  0  0  0  0  0  0  0  0  0  0  0
   33.1708   39.4306   57.6186 H   0  0  0  0  0  0  0  0  0  0  0  0
   32.9911   36.3743   57.4832 H   0  0  0  0  0  0  0  0  0  0  0  0
   32.0879   35.4505   60.0088 H   0  0  0  0  0  0  0  0  0  0  0  0
   32.1418   36.3946   63.2907 H   0  0  0  0  0  0  0  0  0  0  0  0
   30.6197   37.3080   63.1593 H   0  0  0  0  0  0  0  0  0  0  0  0
   30.7460   35.6817   62.4471 H   0  0  0  0  0  0  0  0  0  0  0  0
   34.6458   40.2143   55.7085 H   0  0  0  0  0  0  0  0  0  0  0  0
   35.4761   41.8653   52.1158 H   0  0  0  0  0  0  0  0  0  0  0  0
   34.2196   40.6559   51.7596 H   0  0  0  0  0  0  0  0  0  0  0  0
   34.1179   41.6347   53.2428 H   0  0  0  0  0  0  0  0  0  0  0  0
   35.4699   38.5885   51.5423 H   0  0  0  0  0  0  0  0  0  0  0  0
  1  2  1  0  0  0  0
  1 20  1  0  0  0  0
  1 21  1  0  0  0  0
  1 22  1  0  0  0  0
  2  3  1  0  0  0  0
  3 18  2  0  0  0  0
  3  4  1  0  0  0  0
  4  5  2  0  0  0  0
  4 23  1  0  0  0  0
  5  6  1  0  0  0  0
  5 14  1  0  0  0  0
  6  7  2  0  0  0  0
  6 24  1  0  0  0  0
  7  8  1  0  0  0  0
  7 25  1  0  0  0  0
  8 13  1  0  0  0  0
  8  9  2  0  0  0  0
  9 10  1  0  0  0  0
  9 26  1  0  0  0  0
 10 11  1  0  0  0  0
 10 12  2  0  0  0  0
 11 27  1  0  0  0  0
 11 28  1  0  0  0  0
 11 29  1  0  0  0  0
 12 13  1  0  0  0  0
 14 15  2  0  0  0  0
 14 30  1  0  0  0  0
 15 16  1  0  0  0  0
 15 18  1  0  0  0  0
 16 17  1  0  0  0  0
 17 31  1  0  0  0  0
 17 32  1  0  0  0  0
 17 33  1  0  0  0  0
 18 19  1  0  0  0  0
 19 34  1  0  0  0  0
M  END
$$$$
