ZINC000000027684      none
 OpenBabel11202420153D

 31 32  0  0  0  0  0  0  0  0999 V2000
   31.7574   35.3610   60.4182 C   0  0  0  0  0  0  0  0  0  0  0  0
   32.2284   36.2686   59.3111 C   0  0  0  0  0  0  0  0  0  0  0  0
   32.3663   37.6616   59.3955 C   0  0  0  0  0  0  0  0  0  0  0  0
   32.8135   38.1093   58.2025 C   0  0  0  0  0  0  0  0  0  0  0  0
   33.1061   39.5431   57.8422 C   0  0  0  0  0  0  0  0  0  0  0  0
   32.9472   37.0292   57.3817 N   0  0  0  0  0  0  0  0  0  0  0  0
   33.3652   37.0515   56.1005 C   0  0  0  0  0  0  0  0  0  0  0  0
   33.6624   38.1007   55.5803 O   0  0  0  0  0  0  0  0  0  0  0  0
   33.4620   35.7678   55.3170 C   0  0  0  0  0  0  0  0  0  0  0  0
   34.3788   34.8829   55.9639 O   0  0  0  0  0  0  0  0  0  0  0  0
   34.5825   33.6720   55.3817 C   0  0  0  0  0  0  0  0  0  0  0  0
   34.9110   32.5726   56.1614 C   0  0  0  0  0  0  0  0  0  0  0  0
   35.1125   31.3415   55.5677 C   0  0  0  0  0  0  0  0  0  0  0  0
   34.9971   31.2070   54.1964 C   0  0  0  0  0  0  0  0  0  0  0  0
   34.6754   32.3023   53.4165 C   0  0  0  0  0  0  0  0  0  0  0  0
   34.4678   33.5344   54.0059 C   0  0  0  0  0  0  0  0  0  0  0  0
   32.5721   35.8916   58.1083 N   0  0  0  0  0  0  0  0  0  0  0  0
   32.6147   35.0229   61.0003 H   0  0  0  0  0  0  0  0  0  0  0  0
   31.2470   34.4989   59.9888 H   0  0  0  0  0  0  0  0  0  0  0  0
   31.0700   35.9048   61.0661 H   0  0  0  0  0  0  0  0  0  0  0  0
   32.1545   38.2693   60.2629 H   0  0  0  0  0  0  0  0  0  0  0  0
   32.2057   40.0079   57.4406 H   0  0  0  0  0  0  0  0  0  0  0  0
   33.4274   40.0832   58.7328 H   0  0  0  0  0  0  0  0  0  0  0  0
   33.8968   39.5753   57.0927 H   0  0  0  0  0  0  0  0  0  0  0  0
   32.4795   35.2988   55.2651 H   0  0  0  0  0  0  0  0  0  0  0  0
   33.8153   35.9834   54.3086 H   0  0  0  0  0  0  0  0  0  0  0  0
   35.0053   32.6781   57.2321 H   0  0  0  0  0  0  0  0  0  0  0  0
   35.3638   30.4844   56.1748 H   0  0  0  0  0  0  0  0  0  0  0  0
   35.1589   30.2446   53.7337 H   0  0  0  0  0  0  0  0  0  0  0  0
   34.5865   32.1948   52.3456 H   0  0  0  0  0  0  0  0  0  0  0  0
   34.2168   34.3898   53.3964 H   0  0  0  0  0  0  0  0  0  0  0  0
  1  2  1  0  0  0  0
  1 18  1  0  0  0  0
  1 19  1  0  0  0  0
  1 20  1  0  0  0  0
  2 17  2  0  0  0  0
  2  3  1  0  0  0  0
  3  4  2  0  0  0  0
  3 21  1  0  0  0  0
  4  5  1  0  0  0  0
  4  6  1  0  0  0  0
  5 22  1  0  0  0  0
  5 23  1  0  0  0  0
  5 24  1  0  0  0  0
  6  7  1  0  0  0  0
  6 17  1  0  0  0  0
  7  8  2  0  0  0  0
  7  9  1  0  0  0  0
  9 10  1  0  0  0  0
  9 25  1  0  0  0  0
  9 26  1  0  0  0  0
 10 11  1  0  0  0  0
 11 16  2  0  0  0  0
 11 12  1  0  0  0  0
 12 13  2  0  0  0  0
 12 27  1  0  0  0  0
 13 14  1  0  0  0  0
 13 28  1  0  0  0  0
 14 15  2  0  0  0  0
 14 29  1  0  0  0  0
 15 16  1  0  0  0  0
 15 30  1  0  0  0  0
 16 31  1  0  0  0  0
M  END
$$$$
