ZINC000000000240      none
 OpenBabel11202420153D

 38 40  0  0  1  0  0  0  0  0999 V2000
   32.3023   39.5255   66.7549 O   0  0  0  0  0  0  0  0  0  0  0  0
   31.6409   38.6083   66.3163 C   0  0  0  0  0  0  0  0  0  0  0  0
   30.4591   38.9123   65.4365 C   0  0  2  0  0  0  0  0  0  0  0  0
   30.3285   39.9914   65.3577 H   0  0  0  0  0  0  0  0  0  0  0  0
   29.2821   38.3273   65.9972 O   0  0  0  0  0  0  0  0  0  0  0  0
   30.7005   38.3499   64.1084 N   0  0  0  0  0  0  0  0  0  0  0  0
   30.8196   37.0832   63.9186 C   0  0  0  0  0  0  0  0  0  0  0  0
   31.0695   36.6183   62.5354 C   0  0  0  0  0  0  0  0  0  0  0  0
   31.7944   35.4477   62.3098 C   0  0  0  0  0  0  0  0  0  0  0  0
   32.0235   35.0193   61.0191 C   0  0  0  0  0  0  0  0  0  0  0  0
   31.5366   35.7470   59.9471 C   0  0  0  0  0  0  0  0  0  0  0  0
   30.8179   36.9082   60.1611 C   0  0  0  0  0  0  0  0  0  0  0  0
   30.5756   37.3464   61.4503 C   0  0  0  0  0  0  0  0  0  0  0  0
   29.8679   38.4781   61.6595 F   0  0  0  0  0  0  0  0  0  0  0  0
   30.7258   36.0616   64.9736 C   0  0  0  0  0  0  0  0  0  0  0  0
   30.0388   34.8760   64.6715 C   0  0  0  0  0  0  0  0  0  0  0  0
   29.9126   33.8812   65.6146 C   0  0  0  0  0  0  0  0  0  0  0  0
   29.0544   32.4225   65.2281 Cl  0  0  0  0  0  0  0  0  0  0  0  0
   30.4659   34.0467   66.8747 C   0  0  0  0  0  0  0  0  0  0  0  0
   31.1430   35.2051   67.1852 C   0  0  0  0  0  0  0  0  0  0  0  0
   31.2817   36.2242   66.2406 C   0  0  0  0  0  0  0  0  0  0  0  0
   31.9795   37.3587   66.6263 N   0  0  0  0  0  0  0  0  0  0  0  0
   33.1837   37.1672   67.4383 C   0  0  0  0  0  0  0  0  0  0  0  0
   33.0144   37.8854   68.7787 C   0  0  0  0  0  0  0  0  0  0  0  0
   34.1889   37.6986   69.5709 O   0  0  0  0  0  0  0  0  0  0  0  0
   29.3306   37.3669   66.0994 H   0  0  0  0  0  0  0  0  0  0  0  0
   32.1751   34.8779   63.1445 H   0  0  0  0  0  0  0  0  0  0  0  0
   32.5844   34.1130   60.8443 H   0  0  0  0  0  0  0  0  0  0  0  0
   31.7196   35.4063   58.9387 H   0  0  0  0  0  0  0  0  0  0  0  0
   30.4409   37.4717   59.3204 H   0  0  0  0  0  0  0  0  0  0  0  0
   29.6058   34.7426   63.6910 H   0  0  0  0  0  0  0  0  0  0  0  0
   30.3655   33.2660   67.6143 H   0  0  0  0  0  0  0  0  0  0  0  0
   31.5707   35.3267   68.1694 H   0  0  0  0  0  0  0  0  0  0  0  0
   33.3382   36.1026   67.6136 H   0  0  0  0  0  0  0  0  0  0  0  0
   34.0456   37.5777   66.9125 H   0  0  0  0  0  0  0  0  0  0  0  0
   32.8598   38.9500   68.6036 H   0  0  0  0  0  0  0  0  0  0  0  0
   32.1523   37.4748   69.3045 H   0  0  0  0  0  0  0  0  0  0  0  0
   34.9965   38.0411   69.1637 H   0  0  0  0  0  0  0  0  0  0  0  0
  1  2  2  0  0  0  0
  2 22  1  0  0  0  0
  2  3  1  0  0  0  0
  3  4  1  6  0  0  0
  3  5  1  0  0  0  0
  3  6  1  0  0  0  0
  5 26  1  0  0  0  0
  6  7  2  0  0  0  0
  7  8  1  0  0  0  0
  7 15  1  0  0  0  0
  8 13  2  0  0  0  0
  8  9  1  0  0  0  0
  9 10  2  0  0  0  0
  9 27  1  0  0  0  0
 10 11  1  0  0  0  0
 10 28  1  0  0  0  0
 11 12  2  0  0  0  0
 11 29  1  0  0  0  0
 12 13  1  0  0  0  0
 12 30  1  0  0  0  0
 13 14  1  0  0  0  0
 15 21  2  0  0  0  0
 15 16  1  0  0  0  0
 16 17  2  0  0  0  0
 16 31  1  0  0  0  0
 17 18  1  0  0  0  0
 17 19  1  0  0  0  0
 19 20  2  0  0  0  0
 19 32  1  0  0  0  0
 20 21  1  0  0  0  0
 20 33  1  0  0  0  0
 21 22  1  0  0  0  0
 22 23  1  0  0  0  0
 23 24  1  0  0  0  0
 23 34  1  0  0  0  0
 23 35  1  0  0  0  0
 24 25  1  0  0  0  0
 24 36  1  0  0  0  0
 24 37  1  0  0  0  0
 25 38  1  0  0  0  0
M  END
$$$$
