ZINC000000021006      none
 OpenBabel11202420153D

 32 32  0  0  0  0  0  0  0  0999 V2000
   29.7813   38.2603   62.1264 C   0  0  0  0  0  0  0  0  0  0  0  0
   30.5599   37.2246   61.3129 C   0  0  0  0  0  0  0  0  0  0  0  0
   30.1640   37.3313   59.8389 C   0  0  0  0  0  0  0  0  0  0  0  0
   30.2339   35.8213   61.8283 C   0  0  0  0  0  0  0  0  0  0  0  0
   30.9611   34.8540   61.0683 O   0  0  0  0  0  0  0  0  0  0  0  0
   32.0606   37.4852   61.4580 C   0  0  0  0  0  0  0  0  0  0  0  0
   32.4552   38.5771   60.5647 N   0  0  0  0  0  0  0  0  0  0  0  0
   32.8648   38.2991   59.2676 C   0  0  0  0  0  0  0  0  0  0  0  0
   32.9028   37.0463   58.8260 N   0  0  0  0  0  0  0  0  0  0  0  0
   33.2973   36.7760   57.5910 C   0  0  0  0  0  0  0  0  0  0  0  0
   33.3288   35.4561   57.1665 N   0  0  0  0  0  0  0  0  0  0  0  0
   33.6571   37.7318   56.7489 N   0  0  0  0  0  0  0  0  0  0  0  0
   33.6404   39.0068   57.1161 C   0  0  0  0  0  0  0  0  0  0  0  0
   34.1158   40.2489   56.0005 Cl  0  0  0  0  0  0  0  0  0  0  0  0
   33.2387   39.3348   58.4031 C   0  0  0  0  0  0  0  0  0  0  0  0
   33.2077   40.6737   58.8280 N   0  0  0  0  0  0  0  0  0  0  0  0
   30.0137   39.2600   61.7592 H   0  0  0  0  0  0  0  0  0  0  0  0
   28.7123   38.0746   62.0231 H   0  0  0  0  0  0  0  0  0  0  0  0
   30.0634   38.1843   63.1766 H   0  0  0  0  0  0  0  0  0  0  0  0
   30.7186   36.5934   59.2594 H   0  0  0  0  0  0  0  0  0  0  0  0
   29.0949   37.1456   59.7355 H   0  0  0  0  0  0  0  0  0  0  0  0
   30.3963   38.3310   59.4717 H   0  0  0  0  0  0  0  0  0  0  0  0
   30.5159   35.7451   62.8783 H   0  0  0  0  0  0  0  0  0  0  0  0
   29.1648   35.6355   61.7247 H   0  0  0  0  0  0  0  0  0  0  0  0
   30.8028   33.9397   61.3408 H   0  0  0  0  0  0  0  0  0  0  0  0
   32.6131   36.5831   61.1954 H   0  0  0  0  0  0  0  0  0  0  0  0
   32.2834   37.7605   62.4889 H   0  0  0  0  0  0  0  0  0  0  0  0
   32.4303   39.4944   60.8794 H   0  0  0  0  0  0  0  0  0  0  0  0
   33.6117   35.2436   56.2634 H   0  0  0  0  0  0  0  0  0  0  0  0
   33.0716   34.7450   57.7742 H   0  0  0  0  0  0  0  0  0  0  0  0
   33.4690   41.3820   58.2191 H   0  0  0  0  0  0  0  0  0  0  0  0
   32.9249   40.8897   59.7304 H   0  0  0  0  0  0  0  0  0  0  0  0
  1  2  1  0  0  0  0
  1 17  1  0  0  0  0
  1 18  1  0  0  0  0
  1 19  1  0  0  0  0
  2  3  1  0  0  0  0
  2  4  1  0  0  0  0
  2  6  1  0  0  0  0
  3 20  1  0  0  0  0
  3 21  1  0  0  0  0
  3 22  1  0  0  0  0
  4  5  1  0  0  0  0
  4 23  1  0  0  0  0
  4 24  1  0  0  0  0
  5 25  1  0  0  0  0
  6  7  1  0  0  0  0
  6 26  1  0  0  0  0
  6 27  1  0  0  0  0
  7  8  1  0  0  0  0
  7 28  1  0  0  0  0
  8 15  2  0  0  0  0
  8  9  1  0  0  0  0
  9 10  2  0  0  0  0
 10 11  1  0  0  0  0
 10 12  1  0  0  0  0
 11 29  1  0  0  0  0
 11 30  1  0  0  0  0
 12 13  2  0  0  0  0
 13 14  1  0  0  0  0
 13 15  1  0  0  0  0
 15 16  1  0  0  0  0
 16 31  1  0  0  0  0
 16 32  1  0  0  0  0
M  END
$$$$
