ZINC000000005882      none
 OpenBabel11202420153D

 32 34  0  0  0  0  0  0  0  0999 V2000
   32.3502   39.6411   57.2275 C   0  0  0  0  0  0  0  0  0  0  0  0
   33.4641   38.8251   57.8868 C   0  0  0  0  0  0  0  0  0  0  0  0
   32.8798   37.6818   58.5923 N   0  0  0  0  0  0  0  0  0  0  0  0
   32.5064   37.8285   59.9285 N   0  0  0  0  0  0  0  0  0  0  0  0
   31.9790   36.8528   60.6226 C   0  0  0  0  0  0  0  0  0  0  0  0
   31.6020   37.0684   62.0393 C   0  0  0  0  0  0  0  0  0  0  0  0
   32.5228   36.8281   63.0644 C   0  0  0  0  0  0  0  0  0  0  0  0
   32.1197   37.0395   64.3713 C   0  0  0  0  0  0  0  0  0  0  0  0
   30.8328   37.4824   64.6194 C   0  0  0  0  0  0  0  0  0  0  0  0
   29.9879   37.7058   63.6317 N   0  0  0  0  0  0  0  0  0  0  0  0
   30.3254   37.5191   62.3721 C   0  0  0  0  0  0  0  0  0  0  0  0
   31.7666   35.5404   59.9953 C   0  0  0  0  0  0  0  0  0  0  0  0
   31.2136   34.4710   60.6984 C   0  0  0  0  0  0  0  0  0  0  0  0
   31.0353   33.2606   60.0656 C   0  0  0  0  0  0  0  0  0  0  0  0
   31.4007   33.0941   58.7361 C   0  0  0  0  0  0  0  0  0  0  0  0
   31.9365   34.1408   58.0184 C   0  0  0  0  0  0  0  0  0  0  0  0
   32.1317   35.3726   58.6415 C   0  0  0  0  0  0  0  0  0  0  0  0
   32.7177   36.5172   57.9316 C   0  0  0  0  0  0  0  0  0  0  0  0
   33.0516   36.4163   56.7646 O   0  0  0  0  0  0  0  0  0  0  0  0
   31.8110   39.0133   56.5181 H   0  0  0  0  0  0  0  0  0  0  0  0
   31.6611   39.9995   57.9922 H   0  0  0  0  0  0  0  0  0  0  0  0
   32.7849   40.4917   56.7026 H   0  0  0  0  0  0  0  0  0  0  0  0
   34.0032   39.4530   58.5962 H   0  0  0  0  0  0  0  0  0  0  0  0
   34.1531   38.4666   57.1220 H   0  0  0  0  0  0  0  0  0  0  0  0
   33.5215   36.4826   62.8420 H   0  0  0  0  0  0  0  0  0  0  0  0
   32.8023   36.8602   65.1887 H   0  0  0  0  0  0  0  0  0  0  0  0
   30.5152   37.6483   65.6383 H   0  0  0  0  0  0  0  0  0  0  0  0
   29.6056   37.7126   61.5908 H   0  0  0  0  0  0  0  0  0  0  0  0
   30.9264   34.5911   61.7325 H   0  0  0  0  0  0  0  0  0  0  0  0
   30.6069   32.4317   60.6096 H   0  0  0  0  0  0  0  0  0  0  0  0
   31.2531   32.1375   58.2570 H   0  0  0  0  0  0  0  0  0  0  0  0
   32.2171   34.0038   56.9846 H   0  0  0  0  0  0  0  0  0  0  0  0
  1  2  1  0  0  0  0
  1 20  1  0  0  0  0
  1 21  1  0  0  0  0
  1 22  1  0  0  0  0
  2  3  1  0  0  0  0
  2 23  1  0  0  0  0
  2 24  1  0  0  0  0
  3 18  1  0  0  0  0
  3  4  1  0  0  0  0
  4  5  2  0  0  0  0
  5  6  1  0  0  0  0
  5 12  1  0  0  0  0
  6 11  2  0  0  0  0
  6  7  1  0  0  0  0
  7  8  2  0  0  0  0
  7 25  1  0  0  0  0
  8  9  1  0  0  0  0
  8 26  1  0  0  0  0
  9 10  2  0  0  0  0
  9 27  1  0  0  0  0
 10 11  1  0  0  0  0
 11 28  1  0  0  0  0
 12 17  2  0  0  0  0
 12 13  1  0  0  0  0
 13 14  2  0  0  0  0
 13 29  1  0  0  0  0
 14 15  1  0  0  0  0
 14 30  1  0  0  0  0
 15 16  2  0  0  0  0
 15 31  1  0  0  0  0
 16 17  1  0  0  0  0
 16 32  1  0  0  0  0
 17 18  1  0  0  0  0
 18 19  2  0  0  0  0
M  END
$$$$
