ZINC000000047464      none
 OpenBabel11202420153D

 24 24  0  0  0  0  0  0  0  0999 V2000
   32.2724   36.0556   65.0006 N   0  0  0  0  0  0  0  0  0  0  0  0
   31.8956   36.9718   64.0868 C   0  0  0  0  0  0  0  0  0  0  0  0
   30.9614   38.3243   64.5657 S   0  0  0  0  0  0  0  0  0  0  0  0
   32.2538   36.8232   62.7962 N   0  0  0  0  0  0  0  0  0  0  0  0
   31.8768   37.7393   61.8824 C   0  0  0  0  0  0  0  0  0  0  0  0
   31.2129   38.7006   62.2227 O   0  0  0  0  0  0  0  0  0  0  0  0
   32.2658   37.5781   60.4813 C   0  0  0  0  0  0  0  0  0  0  0  0
   32.4525   38.6643   59.7037 C   0  0  0  0  0  0  0  0  0  0  0  0
   32.8438   38.5022   58.2942 C   0  0  0  0  0  0  0  0  0  0  0  0
   32.6248   37.2860   57.6394 C   0  0  0  0  0  0  0  0  0  0  0  0
   32.9938   37.1421   56.3187 C   0  0  0  0  0  0  0  0  0  0  0  0
   33.5790   38.1975   55.6409 C   0  0  0  0  0  0  0  0  0  0  0  0
   33.7989   39.4043   56.2820 C   0  0  0  0  0  0  0  0  0  0  0  0
   33.4360   39.5637   57.6025 C   0  0  0  0  0  0  0  0  0  0  0  0
   32.8016   35.2893   64.7293 H   0  0  0  0  0  0  0  0  0  0  0  0
   32.0145   36.1625   65.9296 H   0  0  0  0  0  0  0  0  0  0  0  0
   32.7831   36.0569   62.5249 H   0  0  0  0  0  0  0  0  0  0  0  0
   32.4035   36.5892   60.0693 H   0  0  0  0  0  0  0  0  0  0  0  0
   32.3148   39.6532   60.1156 H   0  0  0  0  0  0  0  0  0  0  0  0
   32.1683   36.4616   58.1669 H   0  0  0  0  0  0  0  0  0  0  0  0
   32.8254   36.2036   55.8115 H   0  0  0  0  0  0  0  0  0  0  0  0
   33.8695   38.0774   54.6077 H   0  0  0  0  0  0  0  0  0  0  0  0
   34.2561   40.2232   55.7463 H   0  0  0  0  0  0  0  0  0  0  0  0
   33.6080   40.5060   58.1014 H   0  0  0  0  0  0  0  0  0  0  0  0
  1  2  1  0  0  0  0
  1 15  1  0  0  0  0
  1 16  1  0  0  0  0
  2  3  2  0  0  0  0
  2  4  1  0  0  0  0
  4  5  1  0  0  0  0
  4 17  1  0  0  0  0
  5  6  2  0  0  0  0
  5  7  1  0  0  0  0
  7  8  2  0  0  0  0
  7 18  1  0  0  0  0
  8  9  1  0  0  0  0
  8 19  1  0  0  0  0
  9 14  2  0  0  0  0
  9 10  1  0  0  0  0
 10 11  2  0  0  0  0
 10 20  1  0  0  0  0
 11 12  1  0  0  0  0
 11 21  1  0  0  0  0
 12 13  2  0  0  0  0
 12 22  1  0  0  0  0
 13 14  1  0  0  0  0
 13 23  1  0  0  0  0
 14 24  1  0  0  0  0
M  END
$$$$
