ZINC000000029163      none
 OpenBabel11202420163D

 35 36  0  0  0  0  0  0  0  0999 V2000
   29.7530   38.1828   63.3757 C   0  0  0  0  0  0  0  0  0  0  0  0
   31.0635   37.9842   64.0927 C   0  0  0  0  0  0  0  0  0  0  0  0
   31.4799   38.8986   65.0382 C   0  0  0  0  0  0  0  0  0  0  0  0
   32.6827   38.7178   65.6974 C   0  0  0  0  0  0  0  0  0  0  0  0
   33.4761   37.6200   65.4132 C   0  0  0  0  0  0  0  0  0  0  0  0
   33.0717   36.6985   64.4698 C   0  0  0  0  0  0  0  0  0  0  0  0
   31.8618   36.8783   63.7970 C   0  0  0  0  0  0  0  0  0  0  0  0
   31.4251   35.8979   62.7801 C   0  0  0  0  0  0  0  0  0  0  0  0
   30.3806   35.2938   62.9276 O   0  0  0  0  0  0  0  0  0  0  0  0
   32.1849   35.6740   61.6898 N   0  0  0  0  0  0  0  0  0  0  0  0
   31.7522   34.7025   60.6823 C   0  0  0  0  0  0  0  0  0  0  0  0
   30.8981   35.4082   59.6270 C   0  0  0  0  0  0  0  0  0  0  0  0
   31.7110   36.4905   58.9646 C   0  0  0  0  0  0  0  0  0  0  0  0
   31.7078   37.7722   59.4824 C   0  0  0  0  0  0  0  0  0  0  0  0
   32.4572   38.7639   58.8776 C   0  0  0  0  0  0  0  0  0  0  0  0
   33.2016   38.4763   57.7488 C   0  0  0  0  0  0  0  0  0  0  0  0
   33.2007   37.1959   57.2279 C   0  0  0  0  0  0  0  0  0  0  0  0
   32.4554   36.2030   57.8358 C   0  0  0  0  0  0  0  0  0  0  0  0
   29.9338   38.6654   62.4152 H   0  0  0  0  0  0  0  0  0  0  0  0
   29.2778   37.2155   63.2127 H   0  0  0  0  0  0  0  0  0  0  0  0
   29.0994   38.8113   63.9807 H   0  0  0  0  0  0  0  0  0  0  0  0
   30.8654   39.7574   65.2646 H   0  0  0  0  0  0  0  0  0  0  0  0
   33.0037   39.4360   66.4372 H   0  0  0  0  0  0  0  0  0  0  0  0
   34.4137   37.4844   65.9316 H   0  0  0  0  0  0  0  0  0  0  0  0
   33.6917   35.8424   64.2491 H   0  0  0  0  0  0  0  0  0  0  0  0
   33.0184   36.1562   61.5721 H   0  0  0  0  0  0  0  0  0  0  0  0
   32.6266   34.2597   60.2053 H   0  0  0  0  0  0  0  0  0  0  0  0
   31.1642   33.9197   61.1614 H   0  0  0  0  0  0  0  0  0  0  0  0
   30.5761   34.6853   58.8774 H   0  0  0  0  0  0  0  0  0  0  0  0
   30.0237   35.8509   60.1040 H   0  0  0  0  0  0  0  0  0  0  0  0
   31.1228   37.9979   60.3616 H   0  0  0  0  0  0  0  0  0  0  0  0
   32.4576   39.7644   59.2843 H   0  0  0  0  0  0  0  0  0  0  0  0
   33.7836   39.2522   57.2736 H   0  0  0  0  0  0  0  0  0  0  0  0
   33.7819   36.9713   56.3458 H   0  0  0  0  0  0  0  0  0  0  0  0
   32.4544   35.2027   57.4286 H   0  0  0  0  0  0  0  0  0  0  0  0
  1  2  1  0  0  0  0
  1 19  1  0  0  0  0
  1 20  1  0  0  0  0
  1 21  1  0  0  0  0
  2  7  2  0  0  0  0
  2  3  1  0  0  0  0
  3  4  2  0  0  0  0
  3 22  1  0  0  0  0
  4  5  1  0  0  0  0
  4 23  1  0  0  0  0
  5  6  2  0  0  0  0
  5 24  1  0  0  0  0
  6  7  1  0  0  0  0
  6 25  1  0  0  0  0
  7  8  1  0  0  0  0
  8  9  2  0  0  0  0
  8 10  1  0  0  0  0
 10 11  1  0  0  0  0
 10 26  1  0  0  0  0
 11 12  1  0  0  0  0
 11 27  1  0  0  0  0
 11 28  1  0  0  0  0
 12 13  1  0  0  0  0
 12 29  1  0  0  0  0
 12 30  1  0  0  0  0
 13 18  2  0  0  0  0
 13 14  1  0  0  0  0
 14 15  2  0  0  0  0
 14 31  1  0  0  0  0
 15 16  1  0  0  0  0
 15 32  1  0  0  0  0
 16 17  2  0  0  0  0
 16 33  1  0  0  0  0
 17 18  1  0  0  0  0
 17 34  1  0  0  0  0
 18 35  1  0  0  0  0
M  END
$$$$
