ZINC000000033498      none
 OpenBabel11202420153D

 28 29  0  0  0  0  0  0  0  0999 V2000
   33.0635   39.3075   56.9163 C   0  0  0  0  0  0  0  0  0  0  0  0
   33.0718   37.8801   57.2463 N   0  0  0  0  0  0  0  0  0  0  0  0
   33.5978   37.0093   56.3736 C   0  0  0  0  0  0  0  0  0  0  0  0
   34.0517   37.4411   55.3320 O   0  0  0  0  0  0  0  0  0  0  0  0
   33.6502   35.6873   56.5892 N   0  0  0  0  0  0  0  0  0  0  0  0
   33.1709   35.1386   57.7243 C   0  0  0  0  0  0  0  0  0  0  0  0
   33.2284   33.9375   57.9105 O   0  0  0  0  0  0  0  0  0  0  0  0
   32.5710   36.0320   58.7304 C   0  0  0  0  0  0  0  0  0  0  0  0
   32.0523   35.5381   59.9220 C   0  0  0  0  0  0  0  0  0  0  0  0
   31.6117   36.4258   60.9176 C   0  0  0  0  0  0  0  0  0  0  0  0
   32.3800   36.9549   61.9485 C   0  0  0  0  0  0  0  0  0  0  0  0
   31.5413   37.7779   62.6976 C   0  0  0  0  0  0  0  0  0  0  0  0
   30.3076   37.7474   62.1297 C   0  0  0  0  0  0  0  0  0  0  0  0
   30.3369   36.9370   61.0518 N   0  0  0  0  0  0  0  0  0  0  0  0
   29.2021   36.6430   60.1731 C   0  0  0  0  0  0  0  0  0  0  0  0
   32.5503   37.4723   58.4216 C   0  0  0  0  0  0  0  0  0  0  0  0
   32.0759   38.2727   59.2059 O   0  0  0  0  0  0  0  0  0  0  0  0
   33.9810   39.7698   57.2801 H   0  0  0  0  0  0  0  0  0  0  0  0
   32.9988   39.4300   55.8352 H   0  0  0  0  0  0  0  0  0  0  0  0
   32.2044   39.7844   57.3882 H   0  0  0  0  0  0  0  0  0  0  0  0
   34.0456   35.1125   55.9151 H   0  0  0  0  0  0  0  0  0  0  0  0
   31.9881   34.4719   60.0822 H   0  0  0  0  0  0  0  0  0  0  0  0
   33.4260   36.7618   62.1354 H   0  0  0  0  0  0  0  0  0  0  0  0
   31.8224   38.3405   63.5756 H   0  0  0  0  0  0  0  0  0  0  0  0
   29.4415   38.2861   62.4846 H   0  0  0  0  0  0  0  0  0  0  0  0
   29.2363   37.2996   59.3035 H   0  0  0  0  0  0  0  0  0  0  0  0
   28.2709   36.8065   60.7154 H   0  0  0  0  0  0  0  0  0  0  0  0
   29.2549   35.6045   59.8464 H   0  0  0  0  0  0  0  0  0  0  0  0
  1  2  1  0  0  0  0
  1 18  1  0  0  0  0
  1 19  1  0  0  0  0
  1 20  1  0  0  0  0
  2 16  1  0  0  0  0
  2  3  1  0  0  0  0
  3  4  2  0  0  0  0
  3  5  1  0  0  0  0
  5  6  1  0  0  0  0
  5 21  1  0  0  0  0
  6  7  2  0  0  0  0
  6  8  1  0  0  0  0
  8  9  2  0  0  0  0
  8 16  1  0  0  0  0
  9 10  1  0  0  0  0
  9 22  1  0  0  0  0
 10 14  1  0  0  0  0
 10 11  2  0  0  0  0
 11 12  1  0  0  0  0
 11 23  1  0  0  0  0
 12 13  2  0  0  0  0
 12 24  1  0  0  0  0
 13 14  1  0  0  0  0
 13 25  1  0  0  0  0
 14 15  1  0  0  0  0
 15 26  1  0  0  0  0
 15 27  1  0  0  0  0
 15 28  1  0  0  0  0
 16 17  2  0  0  0  0
M  END
$$$$
