ZINC000000039699      none
 OpenBabel11202420153D

 26 27  0  0  1  0  0  0  0  0999 V2000
   33.3456   40.7219   58.8218 N   0  0  0  0  0  0  0  0  0  0  0  0
   33.3194   39.4518   58.2723 C   0  0  0  0  0  0  0  0  0  0  0  0
   32.9146   38.4087   58.9896 N   0  0  0  0  0  0  0  0  0  0  0  0
   32.8858   37.1936   58.4736 C   0  0  0  0  0  0  0  0  0  0  0  0
   33.2513   36.9438   57.2337 N   0  0  0  0  0  0  0  0  0  0  0  0
   33.6707   37.9240   56.4407 C   0  0  0  0  0  0  0  0  0  0  0  0
   33.7196   39.2353   56.9431 C   0  0  0  0  0  0  0  0  0  0  0  0
   34.1756   40.0293   55.9441 N   0  0  0  0  0  0  0  0  0  0  0  0
   34.4043   39.3056   54.8855 C   0  0  0  0  0  0  0  0  0  0  0  0
   35.0526   39.9682   53.2373 Br  0  0  0  0  0  0  0  0  0  0  0  0
   34.1080   37.9994   55.1418 N   0  0  0  0  0  0  0  0  0  0  0  0
   34.2334   36.8817   54.2030 C   0  0  0  0  0  0  0  0  0  0  0  0
   32.9799   36.0079   54.2802 C   0  0  1  0  0  0  0  0  0  0  0  0
   32.6661   35.9134   55.3197 H   0  0  0  0  0  0  0  0  0  0  0  0
   31.9315   36.6106   53.5190 O   0  0  0  0  0  0  0  0  0  0  0  0
   33.2894   34.6209   53.7130 C   0  0  0  0  0  0  0  0  0  0  0  0
   32.1188   33.8047   53.7851 O   0  0  0  0  0  0  0  0  0  0  0  0
   33.6428   41.4753   58.2879 H   0  0  0  0  0  0  0  0  0  0  0  0
   33.0668   40.8586   59.7407 H   0  0  0  0  0  0  0  0  0  0  0  0
   32.5455   36.3749   59.0903 H   0  0  0  0  0  0  0  0  0  0  0  0
   34.3447   37.2687   53.1902 H   0  0  0  0  0  0  0  0  0  0  0  0
   35.1084   36.2857   54.4625 H   0  0  0  0  0  0  0  0  0  0  0  0
   32.1418   36.7258   52.5822 H   0  0  0  0  0  0  0  0  0  0  0  0
   33.6033   34.7152   52.6734 H   0  0  0  0  0  0  0  0  0  0  0  0
   34.0893   34.1612   54.2937 H   0  0  0  0  0  0  0  0  0  0  0  0
   32.2419   32.9091   53.4419 H   0  0  0  0  0  0  0  0  0  0  0  0
  1  2  1  0  0  0  0
  1 18  1  0  0  0  0
  1 19  1  0  0  0  0
  2  7  2  0  0  0  0
  2  3  1  0  0  0  0
  3  4  2  0  0  0  0
  4  5  1  0  0  0  0
  4 20  1  0  0  0  0
  5  6  2  0  0  0  0
  6 11  1  0  0  0  0
  6  7  1  0  0  0  0
  7  8  1  0  0  0  0
  8  9  2  0  0  0  0
  9 10  1  0  0  0  0
  9 11  1  0  0  0  0
 11 12  1  0  0  0  0
 12 13  1  0  0  0  0
 12 21  1  0  0  0  0
 12 22  1  0  0  0  0
 13 14  1  1  0  0  0
 13 15  1  0  0  0  0
 13 16  1  0  0  0  0
 15 23  1  0  0  0  0
 16 17  1  0  0  0  0
 16 24  1  0  0  0  0
 16 25  1  0  0  0  0
 17 26  1  0  0  0  0
M  END
$$$$
