ZINC000000013800      none
 OpenBabel11202420153D

 25 27  0  0  0  0  0  0  0  0999 V2000
   32.1144   35.1667   52.6424 O   0  0  0  0  0  0  0  0  0  0  0  0
   32.7362   35.1049   53.6917 C   0  0  0  0  0  0  0  0  0  0  0  0
   32.6500   36.1350   54.6438 C   0  0  0  0  0  0  0  0  0  0  0  0
   33.3618   36.0437   55.8220 C   0  0  0  0  0  0  0  0  0  0  0  0
   33.2585   37.1296   56.8030 C   0  0  0  0  0  0  0  0  0  0  0  0
   32.8126   36.9972   58.0875 C   0  0  0  0  0  0  0  0  0  0  0  0
   32.8204   38.1805   58.7905 C   0  0  0  0  0  0  0  0  0  0  0  0
   33.2568   39.2434   58.1065 C   0  0  0  0  0  0  0  0  0  0  0  0
   33.6957   38.8082   56.5163 S   0  0  0  0  0  0  0  0  0  0  0  0
   34.1615   34.9699   56.1013 N   0  0  0  0  0  0  0  0  0  0  0  0
   34.6453   34.9446   56.9417 H   0  0  0  0  0  0  0  0  0  0  0  0
   34.2948   33.9219   55.2144 C   0  0  0  0  0  0  0  0  0  0  0  0
   35.1123   32.8358   55.5126 C   0  0  0  0  0  0  0  0  0  0  0  0
   35.2329   31.7996   54.6126 C   0  0  0  0  0  0  0  0  0  0  0  0
   34.5452   31.8259   53.4076 C   0  0  0  0  0  0  0  0  0  0  0  0
   33.7306   32.8911   53.0936 C   0  0  0  0  0  0  0  0  0  0  0  0
   33.5990   33.9478   53.9946 C   0  0  0  0  0  0  0  0  0  0  0  0
   32.0272   36.9966   54.4535 H   0  0  0  0  0  0  0  0  0  0  0  0
   32.4869   36.0579   58.5094 H   0  0  0  0  0  0  0  0  0  0  0  0
   32.4981   38.2456   59.8192 H   0  0  0  0  0  0  0  0  0  0  0  0
   33.3257   40.2434   58.5085 H   0  0  0  0  0  0  0  0  0  0  0  0
   35.6517   32.8055   56.4477 H   0  0  0  0  0  0  0  0  0  0  0  0
   35.8683   30.9585   54.8474 H   0  0  0  0  0  0  0  0  0  0  0  0
   34.6458   31.0042   52.7139 H   0  0  0  0  0  0  0  0  0  0  0  0
   33.1966   32.9081   52.1550 H   0  0  0  0  0  0  0  0  0  0  0  0
  1  2  2  0  0  0  0
  2 17  1  0  0  0  0
  2  3  1  0  0  0  0
  3  4  2  0  0  0  0
  3 18  1  0  0  0  0
  4  5  1  0  0  0  0
  4 10  1  0  0  0  0
  5  9  1  0  0  0  0
  5  6  2  0  0  0  0
  6  7  1  0  0  0  0
  6 19  1  0  0  0  0
  7  8  2  0  0  0  0
  7 20  1  0  0  0  0
  8  9  1  0  0  0  0
  8 21  1  0  0  0  0
 10 11  1  0  0  0  0
 10 12  1  0  0  0  0
 12 17  2  0  0  0  0
 12 13  1  0  0  0  0
 13 14  2  0  0  0  0
 13 22  1  0  0  0  0
 14 15  1  0  0  0  0
 14 23  1  0  0  0  0
 15 16  2  0  0  0  0
 15 24  1  0  0  0  0
 16 17  1  0  0  0  0
 16 25  1  0  0  0  0
M  END
$$$$
