ZINC000000004247      none
 OpenBabel11202420153D

 33 34  0  0  1  0  0  0  0  0999 V2000
   30.3036   38.4103   63.3797 C   0  0  0  0  0  0  0  0  0  0  0  0
   31.4029   37.4580   63.5561 N   0  0  0  0  0  0  0  0  0  0  0  0
   32.5245   37.6763   64.2728 C   0  0  0  0  0  0  0  0  0  0  0  0
   33.3122   36.5739   64.2092 C   0  0  0  0  0  0  0  0  0  0  0  0
   32.6567   35.6225   63.4258 C   0  0  0  0  0  0  0  0  0  0  0  0
   31.4624   36.1906   63.0167 C   0  0  0  0  0  0  0  0  0  0  0  0
   30.4817   35.5813   62.2012 C   0  0  0  0  0  0  0  0  0  0  0  0
   29.3555   35.4180   62.6250 O   0  0  0  0  0  0  0  0  0  0  0  0
   30.8340   35.1344   60.8056 C   0  0  2  0  0  0  0  0  0  0  0  0
   29.9569   34.6911   60.3339 H   0  0  0  0  0  0  0  0  0  0  0  0
   31.9147   34.1369   60.8680 C   0  0  0  0  0  0  0  0  0  0  0  0
   32.7486   33.3670   60.9160 N   0  0  0  0  0  0  0  0  0  0  0  0
   31.2922   36.3217   59.9987 C   0  0  0  0  0  0  0  0  0  0  0  0
   30.8541   37.4261   60.2424 O   0  0  0  0  0  0  0  0  0  0  0  0
   32.1930   36.1572   59.0098 N   0  0  0  0  0  0  0  0  0  0  0  0
   32.6226   37.2605   58.2640 C   0  0  0  0  0  0  0  0  0  0  0  0
   33.0138   37.0969   56.9416 C   0  0  0  0  0  0  0  0  0  0  0  0
   33.4327   38.1887   56.2069 C   0  0  0  0  0  0  0  0  0  0  0  0
   33.4724   39.4422   56.7896 C   0  0  0  0  0  0  0  0  0  0  0  0
   33.0885   39.6075   58.1078 C   0  0  0  0  0  0  0  0  0  0  0  0
   32.6641   38.5205   58.8465 C   0  0  0  0  0  0  0  0  0  0  0  0
   29.5694   38.2685   64.1728 H   0  0  0  0  0  0  0  0  0  0  0  0
   30.6934   39.4272   63.4229 H   0  0  0  0  0  0  0  0  0  0  0  0
   29.8302   38.2435   62.4122 H   0  0  0  0  0  0  0  0  0  0  0  0
   32.7580   38.5832   64.8105 H   0  0  0  0  0  0  0  0  0  0  0  0
   34.2742   36.4520   64.6846 H   0  0  0  0  0  0  0  0  0  0  0  0
   33.0143   34.6328   63.1829 H   0  0  0  0  0  0  0  0  0  0  0  0
   32.5433   35.2739   58.8149 H   0  0  0  0  0  0  0  0  0  0  0  0
   32.9872   36.1175   56.4872 H   0  0  0  0  0  0  0  0  0  0  0  0
   33.7331   38.0629   55.1772 H   0  0  0  0  0  0  0  0  0  0  0  0
   33.8043   40.2937   56.2142 H   0  0  0  0  0  0  0  0  0  0  0  0
   33.1211   40.5877   58.5602 H   0  0  0  0  0  0  0  0  0  0  0  0
   32.3651   38.6502   59.8762 H   0  0  0  0  0  0  0  0  0  0  0  0
  1  2  1  0  0  0  0
  1 22  1  0  0  0  0
  1 23  1  0  0  0  0
  1 24  1  0  0  0  0
  2  6  1  0  0  0  0
  2  3  1  0  0  0  0
  3  4  2  0  0  0  0
  3 25  1  0  0  0  0
  4  5  1  0  0  0  0
  4 26  1  0  0  0  0
  5  6  2  0  0  0  0
  5 27  1  0  0  0  0
  6  7  1  0  0  0  0
  7  8  2  0  0  0  0
  7  9  1  0  0  0  0
  9 10  1  6  0  0  0
  9 11  1  0  0  0  0
  9 13  1  0  0  0  0
 11 12  3  0  0  0  0
 13 14  2  0  0  0  0
 13 15  1  0  0  0  0
 15 16  1  0  0  0  0
 15 28  1  0  0  0  0
 16 21  2  0  0  0  0
 16 17  1  0  0  0  0
 17 18  2  0  0  0  0
 17 29  1  0  0  0  0
 18 19  1  0  0  0  0
 18 30  1  0  0  0  0
 19 20  2  0  0  0  0
 19 31  1  0  0  0  0
 20 21  1  0  0  0  0
 20 32  1  0  0  0  0
 21 33  1  0  0  0  0
M  END
$$$$
