ZINC000000032149      none
 OpenBabel11202420153D

 35 37  0  0  0  0  0  0  0  0999 V2000
   30.5468   32.8940   57.0763 C   0  0  0  0  0  0  0  0  0  0  0  0
   31.8368   33.2042   57.6072 O   0  0  0  0  0  0  0  0  0  0  0  0
   32.1070   34.5154   57.8464 C   0  0  0  0  0  0  0  0  0  0  0  0
   31.8197   35.0663   59.0812 C   0  0  0  0  0  0  0  0  0  0  0  0
   32.0937   36.4140   59.3217 C   0  0  0  0  0  0  0  0  0  0  0  0
   31.7836   37.0091   60.6386 C   0  0  0  0  0  0  0  0  0  0  0  0
   30.6460   37.5748   60.9616 N   0  0  0  0  0  0  0  0  0  0  0  0
   30.7008   38.0081   62.2448 C   0  0  0  0  0  0  0  0  0  0  0  0
   29.7916   38.6731   63.0739 C   0  0  0  0  0  0  0  0  0  0  0  0
   30.1460   38.9937   64.3536 C   0  0  0  0  0  0  0  0  0  0  0  0
   31.4043   38.6711   64.8416 C   0  0  0  0  0  0  0  0  0  0  0  0
   32.3195   38.0210   64.0405 C   0  0  0  0  0  0  0  0  0  0  0  0
   31.9780   37.6869   62.7374 C   0  0  0  0  0  0  0  0  0  0  0  0
   32.6418   37.0532   61.7046 N   0  0  0  0  0  0  0  0  0  0  0  0
   33.5466   36.7047   61.7299 H   0  0  0  0  0  0  0  0  0  0  0  0
   32.6661   37.1969   58.3178 C   0  0  0  0  0  0  0  0  0  0  0  0
   32.9632   38.6247   58.5716 N   0  0  0  0  0  0  0  0  0  0  0  0
   32.7083   39.1163   59.6564 O   0  0  0  0  0  0  0  0  0  0  0  0
   33.4627   39.3078   57.6956 O   0  0  0  0  0  0  0  0  0  0  0  0
   32.9552   36.6403   57.0897 C   0  0  0  0  0  0  0  0  0  0  0  0
   32.6787   35.3022   56.8488 C   0  0  0  0  0  0  0  0  0  0  0  0
   32.9658   34.7579   55.6371 O   0  0  0  0  0  0  0  0  0  0  0  0
   34.2640   34.1828   55.4753 C   0  0  0  0  0  0  0  0  0  0  0  0
   30.4623   31.8168   56.9330 H   0  0  0  0  0  0  0  0  0  0  0  0
   29.7774   33.2295   57.7718 H   0  0  0  0  0  0  0  0  0  0  0  0
   30.4167   33.3992   56.1193 H   0  0  0  0  0  0  0  0  0  0  0  0
   31.3810   34.4564   59.8571 H   0  0  0  0  0  0  0  0  0  0  0  0
   28.8096   38.9287   62.7044 H   0  0  0  0  0  0  0  0  0  0  0  0
   29.4394   39.5028   64.9923 H   0  0  0  0  0  0  0  0  0  0  0  0
   31.6690   38.9316   65.8558 H   0  0  0  0  0  0  0  0  0  0  0  0
   33.2976   37.7733   64.4254 H   0  0  0  0  0  0  0  0  0  0  0  0
   33.3981   37.2472   56.3139 H   0  0  0  0  0  0  0  0  0  0  0  0
   34.3969   33.3770   56.1973 H   0  0  0  0  0  0  0  0  0  0  0  0
   34.3620   33.7855   54.4652 H   0  0  0  0  0  0  0  0  0  0  0  0
   35.0232   34.9474   55.6404 H   0  0  0  0  0  0  0  0  0  0  0  0
  1  2  1  0  0  0  0
  1 24  1  0  0  0  0
  1 25  1  0  0  0  0
  1 26  1  0  0  0  0
  2  3  1  0  0  0  0
  3 21  2  0  0  0  0
  3  4  1  0  0  0  0
  4  5  2  0  0  0  0
  4 27  1  0  0  0  0
  5  6  1  0  0  0  0
  5 16  1  0  0  0  0
  6 14  1  0  0  0  0
  6  7  2  0  0  0  0
  7  8  1  0  0  0  0
  8 13  2  0  0  0  0
  8  9  1  0  0  0  0
  9 10  2  0  0  0  0
  9 28  1  0  0  0  0
 10 11  1  0  0  0  0
 10 29  1  0  0  0  0
 11 12  2  0  0  0  0
 11 30  1  0  0  0  0
 12 13  1  0  0  0  0
 12 31  1  0  0  0  0
 13 14  1  0  0  0  0
 14 15  1  0  0  0  0
 16 17  1  0  0  0  0
 16 20  2  0  0  0  0
 17 18  2  0  0  0  0
 17 19  2  0  0  0  0
 20 21  1  0  0  0  0
 20 32  1  0  0  0  0
 21 22  1  0  0  0  0
 22 23  1  0  0  0  0
 23 33  1  0  0  0  0
 23 34  1  0  0  0  0
 23 35  1  0  0  0  0
M  END
$$$$
