ZINC000000028112      none
 OpenBabel11202420163D

 36 38  0  0  0  0  0  0  0  0999 V2000
   35.0241   38.5113   54.1674 C   0  0  0  0  0  0  0  0  0  0  0  0
   34.3847   37.5973   55.1807 C   0  0  0  0  0  0  0  0  0  0  0  0
   34.2121   36.4263   54.9172 O   0  0  0  0  0  0  0  0  0  0  0  0
   34.0045   38.0815   56.3797 N   0  0  0  0  0  0  0  0  0  0  0  0
   33.4204   37.2377   57.3159 C   0  0  0  0  0  0  0  0  0  0  0  0
   33.2344   35.9610   57.0235 N   0  0  0  0  0  0  0  0  0  0  0  0
   32.6885   35.1181   57.8796 C   0  0  0  0  0  0  0  0  0  0  0  0
   32.5110   33.6750   57.4834 C   0  0  0  0  0  0  0  0  0  0  0  0
   31.8139   33.3885   56.1518 C   0  0  0  0  0  0  0  0  0  0  0  0
   31.0868   33.1160   57.4701 C   0  0  0  0  0  0  0  0  0  0  0  0
   32.2715   35.5325   59.1285 C   0  0  0  0  0  0  0  0  0  0  0  0
   32.4354   36.8694   59.4956 C   0  0  0  0  0  0  0  0  0  0  0  0
   32.0012   37.3526   60.8273 C   0  0  0  0  0  0  0  0  0  0  0  0
   31.0450   38.3627   60.9278 C   0  0  0  0  0  0  0  0  0  0  0  0
   30.6411   38.8052   62.1708 C   0  0  0  0  0  0  0  0  0  0  0  0
   31.1899   38.2564   63.3154 C   0  0  0  0  0  0  0  0  0  0  0  0
   32.1432   37.2575   63.2223 C   0  0  0  0  0  0  0  0  0  0  0  0
   32.5512   36.8031   61.9848 C   0  0  0  0  0  0  0  0  0  0  0  0
   33.0266   37.7471   58.5629 C   0  0  0  0  0  0  0  0  0  0  0  0
   33.2215   39.1294   58.8822 C   0  0  0  0  0  0  0  0  0  0  0  0
   33.3761   40.2259   59.1353 N   0  0  0  0  0  0  0  0  0  0  0  0
   35.0954   39.5178   54.5799 H   0  0  0  0  0  0  0  0  0  0  0  0
   36.0225   38.1456   53.9271 H   0  0  0  0  0  0  0  0  0  0  0  0
   34.4170   38.5317   53.2622 H   0  0  0  0  0  0  0  0  0  0  0  0
   34.1426   39.0183   56.5903 H   0  0  0  0  0  0  0  0  0  0  0  0
   33.3129   33.0021   57.7868 H   0  0  0  0  0  0  0  0  0  0  0  0
   31.4836   34.2439   55.5625 H   0  0  0  0  0  0  0  0  0  0  0  0
   32.1573   32.5271   55.5790 H   0  0  0  0  0  0  0  0  0  0  0  0
   30.9518   32.0753   57.7647 H   0  0  0  0  0  0  0  0  0  0  0  0
   30.2782   33.7919   57.7484 H   0  0  0  0  0  0  0  0  0  0  0  0
   31.8227   34.8295   59.8146 H   0  0  0  0  0  0  0  0  0  0  0  0
   30.6185   38.7949   60.0346 H   0  0  0  0  0  0  0  0  0  0  0  0
   29.8978   39.5848   62.2500 H   0  0  0  0  0  0  0  0  0  0  0  0
   30.8735   38.6092   64.2860 H   0  0  0  0  0  0  0  0  0  0  0  0
   32.5686   36.8330   64.1195 H   0  0  0  0  0  0  0  0  0  0  0  0
   33.2948   36.0232   61.9132 H   0  0  0  0  0  0  0  0  0  0  0  0
  1  2  1  0  0  0  0
  1 22  1  0  0  0  0
  1 23  1  0  0  0  0
  1 24  1  0  0  0  0
  2  3  2  0  0  0  0
  2  4  1  0  0  0  0
  4  5  1  0  0  0  0
  4 25  1  0  0  0  0
  5 19  2  0  0  0  0
  5  6  1  0  0  0  0
  6  7  2  0  0  0  0
  7  8  1  0  0  0  0
  7 11  1  0  0  0  0
  8 10  1  0  0  0  0
  8  9  1  0  0  0  0
  8 26  1  0  0  0  0
  9 10  1  0  0  0  0
  9 27  1  0  0  0  0
  9 28  1  0  0  0  0
 10 29  1  0  0  0  0
 10 30  1  0  0  0  0
 11 12  2  0  0  0  0
 11 31  1  0  0  0  0
 12 13  1  0  0  0  0
 12 19  1  0  0  0  0
 13 18  2  0  0  0  0
 13 14  1  0  0  0  0
 14 15  2  0  0  0  0
 14 32  1  0  0  0  0
 15 16  1  0  0  0  0
 15 33  1  0  0  0  0
 16 17  2  0  0  0  0
 16 34  1  0  0  0  0
 17 18  1  0  0  0  0
 17 35  1  0  0  0  0
 18 36  1  0  0  0  0
 19 20  1  0  0  0  0
 20 21  3  0  0  0  0
M  END
$$$$
