ZINC000000007182      none
 OpenBabel11202420153D

 23 23  0  0  0  0  0  0  0  0999 V2000
   32.4669   35.0428   53.7606 C   0  0  0  0  0  0  0  0  0  0  0  0
   33.8702   35.4517   54.1276 C   0  0  0  0  0  0  0  0  0  0  0  0
   34.7495   34.5275   54.5645 C   0  0  0  0  0  0  0  0  0  0  0  0
   34.3012   33.1597   54.8322 C   0  0  0  0  0  0  0  0  0  0  0  0
   34.8444   32.1281   54.1563 N   0  0  0  0  0  0  0  0  0  0  0  0
   33.4379   32.9544   55.6652 O   0  0  0  0  0  0  0  0  0  0  0  0
   34.2792   36.8609   54.0147 C   0  0  0  0  0  0  0  0  0  0  0  0
   34.8239   37.3413   52.8195 C   0  0  0  0  0  0  0  0  0  0  0  0
   35.2047   38.6625   52.7216 C   0  0  0  0  0  0  0  0  0  0  0  0
   35.0498   39.5138   53.8023 C   0  0  0  0  0  0  0  0  0  0  0  0
   34.5124   39.0473   54.9885 C   0  0  0  0  0  0  0  0  0  0  0  0
   34.1200   37.7286   55.1008 C   0  0  0  0  0  0  0  0  0  0  0  0
   33.3772   37.0947   56.7201 Br  0  0  0  0  0  0  0  0  0  0  0  0
   31.8471   35.0268   54.6571 H   0  0  0  0  0  0  0  0  0  0  0  0
   32.0553   35.7565   53.0470 H   0  0  0  0  0  0  0  0  0  0  0  0
   32.4835   34.0492   53.3126 H   0  0  0  0  0  0  0  0  0  0  0  0
   35.7843   34.7961   54.7169 H   0  0  0  0  0  0  0  0  0  0  0  0
   35.5324   32.2917   53.4924 H   0  0  0  0  0  0  0  0  0  0  0  0
   34.5475   31.2218   54.3338 H   0  0  0  0  0  0  0  0  0  0  0  0
   34.9462   36.6787   51.9754 H   0  0  0  0  0  0  0  0  0  0  0  0
   35.6254   39.0346   51.7991 H   0  0  0  0  0  0  0  0  0  0  0  0
   35.3506   40.5477   53.7190 H   0  0  0  0  0  0  0  0  0  0  0  0
   34.3952   39.7175   55.8272 H   0  0  0  0  0  0  0  0  0  0  0  0
  1  2  1  0  0  0  0
  1 14  1  0  0  0  0
  1 15  1  0  0  0  0
  1 16  1  0  0  0  0
  2  3  2  0  0  0  0
  2  7  1  0  0  0  0
  3  4  1  0  0  0  0
  3 17  1  0  0  0  0
  4  5  1  0  0  0  0
  4  6  2  0  0  0  0
  5 18  1  0  0  0  0
  5 19  1  0  0  0  0
  7 12  2  0  0  0  0
  7  8  1  0  0  0  0
  8  9  2  0  0  0  0
  8 20  1  0  0  0  0
  9 10  1  0  0  0  0
  9 21  1  0  0  0  0
 10 11  2  0  0  0  0
 10 22  1  0  0  0  0
 11 12  1  0  0  0  0
 11 23  1  0  0  0  0
 12 13  1  0  0  0  0
M  END
$$$$
