ZINC000000054398      none
 OpenBabel11202420153D

 44 47  0  0  1  0  0  0  0  0999 V2000
   29.3265   36.1477   64.2682 C   0  0  0  0  0  0  0  0  0  0  0  0
   30.0399   37.1302   63.3372 C   0  0  0  0  0  0  0  0  0  0  0  0
   30.1725   36.5059   61.9465 C   0  0  0  0  0  0  0  0  0  0  0  0
   31.4430   37.4332   63.8932 C   0  0  0  0  0  0  0  0  0  0  0  0
   31.2290   38.2886   65.1260 C   0  0  0  0  0  0  0  0  0  0  0  0
   31.6568   38.1216   66.2986 N   0  0  0  0  0  0  0  0  0  0  0  0
   31.1184   39.0032   67.2384 N   0  0  0  0  0  0  0  0  0  0  0  0
   31.4395   39.0499   68.5467 C   0  0  0  0  0  0  0  0  0  0  0  0
   30.9039   39.8639   69.2760 O   0  0  0  0  0  0  0  0  0  0  0  0
   32.4340   38.1203   69.0909 C   0  0  0  0  0  0  0  0  0  0  0  0
   32.3512   36.7572   69.0758 C   0  0  0  0  0  0  0  0  0  0  0  0
   33.5132   36.2754   69.6986 C   0  0  0  0  0  0  0  0  0  0  0  0
   34.2450   37.3517   70.0621 C   0  0  0  0  0  0  0  0  0  0  0  0
   33.5939   38.4614   69.6893 O   0  0  0  0  0  0  0  0  0  0  0  0
   30.1393   39.8742   66.5613 C   0  0  2  0  0  0  0  0  0  0  0  0
   30.3858   40.9244   66.7172 H   0  0  0  0  0  0  0  0  0  0  0  0
   28.7422   39.5799   67.0435 C   0  0  0  0  0  0  0  0  0  0  0  0
   27.7921   40.5839   67.0635 C   0  0  0  0  0  0  0  0  0  0  0  0
   26.5103   40.3138   67.5051 C   0  0  0  0  0  0  0  0  0  0  0  0
   26.1784   39.0396   67.9261 C   0  0  0  0  0  0  0  0  0  0  0  0
   27.1299   38.0370   67.9111 C   0  0  0  0  0  0  0  0  0  0  0  0
   28.4105   38.3060   67.4655 C   0  0  0  0  0  0  0  0  0  0  0  0
   30.2942   39.4913   65.0845 C   0  0  2  0  0  0  0  0  0  0  0  0
   30.7219   40.3095   64.5051 H   0  0  0  0  0  0  0  0  0  0  0  0
   28.9788   38.9885   64.4826 C   0  0  0  0  0  0  0  0  0  0  0  0
   29.2779   38.3321   63.2449 O   0  0  0  0  0  0  0  0  0  0  0  0
   28.3373   35.9224   63.8697 H   0  0  0  0  0  0  0  0  0  0  0  0
   29.9074   35.2281   64.3399 H   0  0  0  0  0  0  0  0  0  0  0  0
   29.2268   36.5926   65.2582 H   0  0  0  0  0  0  0  0  0  0  0  0
   30.6761   37.2063   61.2804 H   0  0  0  0  0  0  0  0  0  0  0  0
   30.7545   35.5869   62.0148 H   0  0  0  0  0  0  0  0  0  0  0  0
   29.1812   36.2797   61.5537 H   0  0  0  0  0  0  0  0  0  0  0  0
   32.0294   37.9796   63.1546 H   0  0  0  0  0  0  0  0  0  0  0  0
   31.9479   36.5057   64.1632 H   0  0  0  0  0  0  0  0  0  0  0  0
   31.5474   36.1647   68.6643 H   0  0  0  0  0  0  0  0  0  0  0  0
   33.7734   35.2393   69.8575 H   0  0  0  0  0  0  0  0  0  0  0  0
   35.1999   37.3220   70.5658 H   0  0  0  0  0  0  0  0  0  0  0  0
   28.0512   41.5792   66.7339 H   0  0  0  0  0  0  0  0  0  0  0  0
   25.7681   41.0981   67.5207 H   0  0  0  0  0  0  0  0  0  0  0  0
   25.1769   38.8287   68.2710 H   0  0  0  0  0  0  0  0  0  0  0  0
   26.8718   37.0426   68.2442 H   0  0  0  0  0  0  0  0  0  0  0  0
   29.1526   37.5215   67.4495 H   0  0  0  0  0  0  0  0  0  0  0  0
   28.5059   38.2847   65.1676 H   0  0  0  0  0  0  0  0  0  0  0  0
   28.3113   39.8309   64.3014 H   0  0  0  0  0  0  0  0  0  0  0  0
  1  2  1  0  0  0  0
  1 27  1  0  0  0  0
  1 28  1  0  0  0  0
  1 29  1  0  0  0  0
  2 26  1  0  0  0  0
  2  3  1  0  0  0  0
  2  4  1  0  0  0  0
  3 30  1  0  0  0  0
  3 31  1  0  0  0  0
  3 32  1  0  0  0  0
  4  5  1  0  0  0  0
  4 33  1  0  0  0  0
  4 34  1  0  0  0  0
  5 23  1  0  0  0  0
  5  6  2  0  0  0  0
  6  7  1  0  0  0  0
  7  8  1  0  0  0  0
  7 15  1  0  0  0  0
  8  9  2  0  0  0  0
  8 10  1  0  0  0  0
 10 14  1  0  0  0  0
 10 11  2  0  0  0  0
 11 12  1  0  0  0  0
 11 35  1  0  0  0  0
 12 13  2  0  0  0  0
 12 36  1  0  0  0  0
 13 14  1  0  0  0  0
 13 37  1  0  0  0  0
 15 16  1  1  0  0  0
 15 17  1  0  0  0  0
 15 23  1  0  0  0  0
 17 22  2  0  0  0  0
 17 18  1  0  0  0  0
 18 19  2  0  0  0  0
 18 38  1  0  0  0  0
 19 20  1  0  0  0  0
 19 39  1  0  0  0  0
 20 21  2  0  0  0  0
 20 40  1  0  0  0  0
 21 22  1  0  0  0  0
 21 41  1  0  0  0  0
 22 42  1  0  0  0  0
 23 24  1  6  0  0  0
 23 25  1  0  0  0  0
 25 26  1  0  0  0  0
 25 43  1  0  0  0  0
 25 44  1  0  0  0  0
M  END
$$$$
