ZINC000000027295      none
 OpenBabel11202420153D

 32 33  0  0  1  0  0  0  0  0999 V2000
   31.5935   39.0327   65.2578 N   0  0  0  0  0  0  0  0  0  0  0  0
   31.4560   38.2132   64.4832 C   0  0  0  0  0  0  0  0  0  0  0  0
   31.2920   37.2358   63.5592 N   0  0  0  0  0  0  0  0  0  0  0  0
   30.5259   35.9911   63.7519 C   0  0  0  0  0  0  0  0  0  0  0  0
   31.1307   34.9915   62.7346 C   0  0  0  0  0  0  0  0  0  0  0  0
   31.4258   35.9179   61.5256 C   0  0  0  0  0  0  0  0  0  0  0  0
   31.8491   37.2405   62.1987 C   0  0  1  0  0  0  0  0  0  0  0  0
   32.9365   37.3035   62.2411 H   0  0  0  0  0  0  0  0  0  0  0  0
   31.2898   38.4273   61.4115 C   0  0  0  0  0  0  0  0  0  0  0  0
   32.1657   38.7144   60.2728 N   0  0  0  0  0  0  0  0  0  0  0  0
   31.9468   38.1137   59.0862 C   0  0  0  0  0  0  0  0  0  0  0  0
   31.0257   37.3303   58.9623 O   0  0  0  0  0  0  0  0  0  0  0  0
   32.8269   38.4079   57.9353 C   0  0  0  0  0  0  0  0  0  0  0  0
   33.4852   39.6360   57.8522 C   0  0  0  0  0  0  0  0  0  0  0  0
   34.3092   39.9021   56.7783 C   0  0  0  0  0  0  0  0  0  0  0  0
   34.4752   38.9592   55.7794 C   0  0  0  0  0  0  0  0  0  0  0  0
   33.8210   37.7422   55.8527 C   0  0  0  0  0  0  0  0  0  0  0  0
   32.9986   37.4612   56.9243 C   0  0  0  0  0  0  0  0  0  0  0  0
   29.4702   36.1583   63.5377 H   0  0  0  0  0  0  0  0  0  0  0  0
   30.6515   35.6199   64.7691 H   0  0  0  0  0  0  0  0  0  0  0  0
   30.4084   34.2199   62.4685 H   0  0  0  0  0  0  0  0  0  0  0  0
   32.0487   34.5486   63.1208 H   0  0  0  0  0  0  0  0  0  0  0  0
   30.5294   36.0618   60.9222 H   0  0  0  0  0  0  0  0  0  0  0  0
   32.2385   35.5155   60.9208 H   0  0  0  0  0  0  0  0  0  0  0  0
   31.2389   39.3018   62.0602 H   0  0  0  0  0  0  0  0  0  0  0  0
   30.2907   38.1848   61.0495 H   0  0  0  0  0  0  0  0  0  0  0  0
   32.9006   39.3395   60.3716 H   0  0  0  0  0  0  0  0  0  0  0  0
   33.3529   40.3745   58.6290 H   0  0  0  0  0  0  0  0  0  0  0  0
   34.8226   40.8502   56.7150 H   0  0  0  0  0  0  0  0  0  0  0  0
   35.1184   39.1740   54.9388 H   0  0  0  0  0  0  0  0  0  0  0  0
   33.9548   37.0106   55.0698 H   0  0  0  0  0  0  0  0  0  0  0  0
   32.4893   36.5106   56.9808 H   0  0  0  0  0  0  0  0  0  0  0  0
  1  2  3  0  0  0  0
  2  3  1  0  0  0  0
  3  7  1  0  0  0  0
  3  4  1  0  0  0  0
  4  5  1  0  0  0  0
  4 19  1  0  0  0  0
  4 20  1  0  0  0  0
  5  6  1  0  0  0  0
  5 21  1  0  0  0  0
  5 22  1  0  0  0  0
  6  7  1  0  0  0  0
  6 23  1  0  0  0  0
  6 24  1  0  0  0  0
  7  8  1  1  0  0  0
  7  9  1  0  0  0  0
  9 10  1  0  0  0  0
  9 25  1  0  0  0  0
  9 26  1  0  0  0  0
 10 11  1  0  0  0  0
 10 27  1  0  0  0  0
 11 12  2  0  0  0  0
 11 13  1  0  0  0  0
 13 18  2  0  0  0  0
 13 14  1  0  0  0  0
 14 15  2  0  0  0  0
 14 28  1  0  0  0  0
 15 16  1  0  0  0  0
 15 29  1  0  0  0  0
 16 17  2  0  0  0  0
 16 30  1  0  0  0  0
 17 18  1  0  0  0  0
 17 31  1  0  0  0  0
 18 32  1  0  0  0  0
M  END
$$$$
