ZINC000000034258      none
 OpenBabel11202420153D

 40 42  0  0  0  0  0  0  0  0999 V2000
   29.4786   34.4139   68.5431 C   0  0  0  0  0  0  0  0  0  0  0  0
   29.1565   33.7320   67.3292 O   0  0  0  0  0  0  0  0  0  0  0  0
   29.8289   34.1104   66.2134 C   0  0  0  0  0  0  0  0  0  0  0  0
   29.5632   33.4864   64.9991 C   0  0  0  0  0  0  0  0  0  0  0  0
   30.2406   33.8645   63.8686 C   0  0  0  0  0  0  0  0  0  0  0  0
   31.2013   34.8811   63.9379 C   0  0  0  0  0  0  0  0  0  0  0  0
   31.9298   35.2901   62.7302 C   0  0  0  0  0  0  0  0  0  0  0  0
   33.0611   35.7180   62.8200 O   0  0  0  0  0  0  0  0  0  0  0  0
   31.2717   35.1781   61.3790 C   0  0  0  0  0  0  0  0  0  0  0  0
   31.8124   36.2486   60.4666 C   0  0  0  0  0  0  0  0  0  0  0  0
   32.1675   35.9420   59.1932 C   0  0  0  0  0  0  0  0  0  0  0  0
   32.6892   37.0160   58.3421 C   0  0  0  0  0  0  0  0  0  0  0  0
   33.0728   36.7663   57.0200 C   0  0  0  0  0  0  0  0  0  0  0  0
   33.5553   37.7855   56.2484 C   0  0  0  0  0  0  0  0  0  0  0  0
   33.6696   39.0679   56.7649 C   0  0  0  0  0  0  0  0  0  0  0  0
   33.2961   39.3377   58.0691 C   0  0  0  0  0  0  0  0  0  0  0  0
   33.4117   40.5982   58.5656 O   0  0  0  0  0  0  0  0  0  0  0  0
   34.6491   40.9365   59.1952 C   0  0  0  0  0  0  0  0  0  0  0  0
   32.8009   38.3116   58.8725 C   0  0  0  0  0  0  0  0  0  0  0  0
   32.4298   38.5508   60.1488 O   0  0  0  0  0  0  0  0  0  0  0  0
   31.9515   37.5736   60.9340 C   0  0  0  0  0  0  0  0  0  0  0  0
   31.6290   37.8361   62.0786 O   0  0  0  0  0  0  0  0  0  0  0  0
   31.4688   35.5026   65.1640 C   0  0  0  0  0  0  0  0  0  0  0  0
   30.7820   35.1206   66.2877 C   0  0  0  0  0  0  0  0  0  0  0  0
   29.2767   35.4785   68.4264 H   0  0  0  0  0  0  0  0  0  0  0  0
   28.8708   34.0156   69.3556 H   0  0  0  0  0  0  0  0  0  0  0  0
   30.5338   34.2671   68.7732 H   0  0  0  0  0  0  0  0  0  0  0  0
   28.8221   32.7025   64.9468 H   0  0  0  0  0  0  0  0  0  0  0  0
   30.0340   33.3789   62.9263 H   0  0  0  0  0  0  0  0  0  0  0  0
   30.1944   35.3036   61.4881 H   0  0  0  0  0  0  0  0  0  0  0  0
   31.4818   34.1971   60.9528 H   0  0  0  0  0  0  0  0  0  0  0  0
   32.0683   34.9345   58.8170 H   0  0  0  0  0  0  0  0  0  0  0  0
   32.9917   35.7698   56.6117 H   0  0  0  0  0  0  0  0  0  0  0  0
   33.8508   37.5909   55.2280 H   0  0  0  0  0  0  0  0  0  0  0  0
   34.0532   39.8631   56.1429 H   0  0  0  0  0  0  0  0  0  0  0  0
   34.8199   40.2713   60.0417 H   0  0  0  0  0  0  0  0  0  0  0  0
   35.4631   40.8284   58.4782 H   0  0  0  0  0  0  0  0  0  0  0  0
   34.6084   41.9677   59.5459 H   0  0  0  0  0  0  0  0  0  0  0  0
   32.2121   36.2838   65.2238 H   0  0  0  0  0  0  0  0  0  0  0  0
   30.9847   35.6021   67.2330 H   0  0  0  0  0  0  0  0  0  0  0  0
  1  2  1  0  0  0  0
  1 25  1  0  0  0  0
  1 26  1  0  0  0  0
  1 27  1  0  0  0  0
  2  3  1  0  0  0  0
  3 24  2  0  0  0  0
  3  4  1  0  0  0  0
  4  5  2  0  0  0  0
  4 28  1  0  0  0  0
  5  6  1  0  0  0  0
  5 29  1  0  0  0  0
  6  7  1  0  0  0  0
  6 23  2  0  0  0  0
  7  8  2  0  0  0  0
  7  9  1  0  0  0  0
  9 10  1  0  0  0  0
  9 30  1  0  0  0  0
  9 31  1  0  0  0  0
 10 21  1  0  0  0  0
 10 11  2  0  0  0  0
 11 12  1  0  0  0  0
 11 32  1  0  0  0  0
 12 19  2  0  0  0  0
 12 13  1  0  0  0  0
 13 14  2  0  0  0  0
 13 33  1  0  0  0  0
 14 15  1  0  0  0  0
 14 34  1  0  0  0  0
 15 16  2  0  0  0  0
 15 35  1  0  0  0  0
 16 17  1  0  0  0  0
 16 19  1  0  0  0  0
 17 18  1  0  0  0  0
 18 36  1  0  0  0  0
 18 37  1  0  0  0  0
 18 38  1  0  0  0  0
 19 20  1  0  0  0  0
 20 21  1  0  0  0  0
 21 22  2  0  0  0  0
 23 24  1  0  0  0  0
 23 39  1  0  0  0  0
 24 40  1  0  0  0  0
M  END
$$$$
