ZINC000000029733      none
 OpenBabel11202420163D

 28 29  0  0  0  0  0  0  0  0999 V2000
   32.7337   34.8357   58.4309 O   0  0  0  0  0  0  0  0  0  0  0  0
   32.7347   35.5473   57.4452 C   0  0  0  0  0  0  0  0  0  0  0  0
   32.5020   35.0148   56.2293 N   0  0  0  0  0  0  0  0  0  0  0  0
   32.2477   33.5782   56.0952 C   0  0  0  0  0  0  0  0  0  0  0  0
   33.2958   32.9637   55.2035 C   0  0  0  0  0  0  0  0  0  0  0  0
   33.0813   32.9023   53.8394 C   0  0  0  0  0  0  0  0  0  0  0  0
   34.0519   32.3356   53.0279 C   0  0  0  0  0  0  0  0  0  0  0  0
   35.2071   31.8495   53.6215 C   0  0  0  0  0  0  0  0  0  0  0  0
   35.3514   31.9456   54.9924 C   0  0  0  0  0  0  0  0  0  0  0  0
   34.4090   32.4958   55.7330 N   0  0  0  0  0  0  0  0  0  0  0  0
   32.9912   36.9957   57.5803 C   0  0  0  0  0  0  0  0  0  0  0  0
   33.5999   37.7006   56.5397 C   0  0  0  0  0  0  0  0  0  0  0  0
   33.8361   39.0523   56.6720 C   0  0  0  0  0  0  0  0  0  0  0  0
   33.4713   39.7132   57.8326 C   0  0  0  0  0  0  0  0  0  0  0  0
   32.8679   39.0245   58.8679 C   0  0  0  0  0  0  0  0  0  0  0  0
   32.6248   37.6679   58.7503 C   0  0  0  0  0  0  0  0  0  0  0  0
   32.0350   36.9949   59.7623 F   0  0  0  0  0  0  0  0  0  0  0  0
   32.5028   35.5826   55.4428 H   0  0  0  0  0  0  0  0  0  0  0  0
   32.2867   33.1091   57.0783 H   0  0  0  0  0  0  0  0  0  0  0  0
   31.2616   33.4231   55.6573 H   0  0  0  0  0  0  0  0  0  0  0  0
   32.1691   33.2908   53.4112 H   0  0  0  0  0  0  0  0  0  0  0  0
   33.9119   32.2743   51.9587 H   0  0  0  0  0  0  0  0  0  0  0  0
   35.9843   31.4019   53.0199 H   0  0  0  0  0  0  0  0  0  0  0  0
   36.2480   31.5694   55.4624 H   0  0  0  0  0  0  0  0  0  0  0  0
   33.8856   37.1877   55.6332 H   0  0  0  0  0  0  0  0  0  0  0  0
   34.3069   39.5977   55.8674 H   0  0  0  0  0  0  0  0  0  0  0  0
   33.6589   40.7724   57.9294 H   0  0  0  0  0  0  0  0  0  0  0  0
   32.5897   39.5455   59.7720 H   0  0  0  0  0  0  0  0  0  0  0  0
  1  2  2  0  0  0  0
  2  3  1  0  0  0  0
  2 11  1  0  0  0  0
  3  4  1  0  0  0  0
  3 18  1  0  0  0  0
  4  5  1  0  0  0  0
  4 19  1  0  0  0  0
  4 20  1  0  0  0  0
  5 10  2  0  0  0  0
  5  6  1  0  0  0  0
  6  7  2  0  0  0  0
  6 21  1  0  0  0  0
  7  8  1  0  0  0  0
  7 22  1  0  0  0  0
  8  9  2  0  0  0  0
  8 23  1  0  0  0  0
  9 10  1  0  0  0  0
  9 24  1  0  0  0  0
 11 16  2  0  0  0  0
 11 12  1  0  0  0  0
 12 13  2  0  0  0  0
 12 25  1  0  0  0  0
 13 14  1  0  0  0  0
 13 26  1  0  0  0  0
 14 15  2  0  0  0  0
 14 27  1  0  0  0  0
 15 16  1  0  0  0  0
 15 28  1  0  0  0  0
 16 17  1  0  0  0  0
M  END
$$$$
