ZINC000000001810      none
 OpenBabel11202420153D

 41 43  0  0  0  0  0  0  0  0999 V2000
   30.8311   36.6698   65.7178 O   0  0  0  0  0  0  0  0  0  0  0  0
   31.2888   36.1321   64.7254 N   0  0  0  0  0  0  0  0  0  0  0  0
   31.7036   34.9886   64.7886 O   0  0  0  0  0  0  0  0  0  0  0  0
   31.3408   36.8684   63.4421 C   0  0  0  0  0  0  0  0  0  0  0  0
   30.9152   38.1328   63.2433 C   0  0  0  0  0  0  0  0  0  0  0  0
   31.1537   38.4410   61.8911 C   0  0  0  0  0  0  0  0  0  0  0  0
   31.7100   37.3330   61.3290 C   0  0  0  0  0  0  0  0  0  0  0  0
   32.1257   37.1924   59.9209 C   0  0  0  0  0  0  0  0  0  0  0  0
   32.0825   35.9833   59.3584 N   0  0  0  0  0  0  0  0  0  0  0  0
   32.4436   35.7956   58.0989 C   0  0  0  0  0  0  0  0  0  0  0  0
   32.3947   34.5408   57.5294 N   0  0  0  0  0  0  0  0  0  0  0  0
   33.6654   33.8280   57.7165 C   0  0  0  0  0  0  0  0  0  0  0  0
   34.2631   33.4839   56.3508 C   0  0  0  0  0  0  0  0  0  0  0  0
   35.4992   32.7904   56.5329 O   0  0  0  0  0  0  0  0  0  0  0  0
   31.2704   33.7626   58.0661 C   0  0  0  0  0  0  0  0  0  0  0  0
   30.7736   32.7830   57.0010 C   0  0  0  0  0  0  0  0  0  0  0  0
   29.6799   32.0259   57.5231 O   0  0  0  0  0  0  0  0  0  0  0  0
   32.8824   36.9171   57.3498 C   0  0  0  0  0  0  0  0  0  0  0  0
   33.2816   36.8054   56.0142 C   0  0  0  0  0  0  0  0  0  0  0  0
   33.6957   37.9172   55.3405 C   0  0  0  0  0  0  0  0  0  0  0  0
   33.7265   39.1611   55.9643 C   0  0  0  0  0  0  0  0  0  0  0  0
   33.3435   39.3043   57.2648 C   0  0  0  0  0  0  0  0  0  0  0  0
   32.9124   38.1821   57.9870 C   0  0  0  0  0  0  0  0  0  0  0  0
   32.5315   38.2692   59.2686 N   0  0  0  0  0  0  0  0  0  0  0  0
   31.8199   36.3889   62.2844 O   0  0  0  0  0  0  0  0  0  0  0  0
   30.4778   38.7867   63.9834 H   0  0  0  0  0  0  0  0  0  0  0  0
   30.9355   39.3749   61.3949 H   0  0  0  0  0  0  0  0  0  0  0  0
   34.3600   34.4619   58.2677 H   0  0  0  0  0  0  0  0  0  0  0  0
   33.4880   32.9101   58.2771 H   0  0  0  0  0  0  0  0  0  0  0  0
   33.5687   32.8500   55.7996 H   0  0  0  0  0  0  0  0  0  0  0  0
   34.4406   34.4017   55.7902 H   0  0  0  0  0  0  0  0  0  0  0  0
   35.9352   32.5403   55.7068 H   0  0  0  0  0  0  0  0  0  0  0  0
   31.5990   33.2079   58.9449 H   0  0  0  0  0  0  0  0  0  0  0  0
   30.4612   34.4377   58.3443 H   0  0  0  0  0  0  0  0  0  0  0  0
   30.4447   33.3378   56.1222 H   0  0  0  0  0  0  0  0  0  0  0  0
   31.5828   32.1079   56.7226 H   0  0  0  0  0  0  0  0  0  0  0  0
   29.3623   31.3323   56.9289 H   0  0  0  0  0  0  0  0  0  0  0  0
   33.2622   35.8455   55.5194 H   0  0  0  0  0  0  0  0  0  0  0  0
   34.0041   37.8310   54.3090 H   0  0  0  0  0  0  0  0  0  0  0  0
   34.0589   40.0261   55.4096 H   0  0  0  0  0  0  0  0  0  0  0  0
   33.3718   40.2756   57.7359 H   0  0  0  0  0  0  0  0  0  0  0  0
  1  2  2  0  0  0  0
  2  3  2  0  0  0  0
  2  4  1  0  0  0  0
  4 25  1  0  0  0  0
  4  5  2  0  0  0  0
  5  6  1  0  0  0  0
  5 26  1  0  0  0  0
  6  7  2  0  0  0  0
  6 27  1  0  0  0  0
  7  8  1  0  0  0  0
  7 25  1  0  0  0  0
  8 24  2  0  0  0  0
  8  9  1  0  0  0  0
  9 10  2  0  0  0  0
 10 11  1  0  0  0  0
 10 18  1  0  0  0  0
 11 12  1  0  0  0  0
 11 15  1  0  0  0  0
 12 13  1  0  0  0  0
 12 28  1  0  0  0  0
 12 29  1  0  0  0  0
 13 14  1  0  0  0  0
 13 30  1  0  0  0  0
 13 31  1  0  0  0  0
 14 32  1  0  0  0  0
 15 16  1  0  0  0  0
 15 33  1  0  0  0  0
 15 34  1  0  0  0  0
 16 17  1  0  0  0  0
 16 35  1  0  0  0  0
 16 36  1  0  0  0  0
 17 37  1  0  0  0  0
 18 23  2  0  0  0  0
 18 19  1  0  0  0  0
 19 20  2  0  0  0  0
 19 38  1  0  0  0  0
 20 21  1  0  0  0  0
 20 39  1  0  0  0  0
 21 22  2  0  0  0  0
 21 40  1  0  0  0  0
 22 23  1  0  0  0  0
 22 41  1  0  0  0  0
 23 24  1  0  0  0  0
M  END
$$$$
