ZINC000000044893      none
 OpenBabel11202420153D

 35 38  0  0  0  0  0  0  0  0999 V2000
   33.6769   40.1608   56.9584 O   0  0  0  0  0  0  0  0  0  0  0  0
   33.4624   38.9721   57.0967 C   0  0  0  0  0  0  0  0  0  0  0  0
   32.9269   38.3214   58.3025 C   0  0  0  0  0  0  0  0  0  0  0  0
   32.5739   38.9452   59.4902 C   0  0  0  0  0  0  0  0  0  0  0  0
   31.9150   38.2196   60.4954 C   0  0  0  0  0  0  0  0  0  0  0  0
   30.6893   37.5809   60.3682 C   0  0  0  0  0  0  0  0  0  0  0  0
   30.4171   36.9839   61.5975 C   0  0  0  0  0  0  0  0  0  0  0  0
   31.4769   37.2740   62.4316 C   0  0  0  0  0  0  0  0  0  0  0  0
   31.6109   36.8412   63.8355 C   0  0  0  0  0  0  0  0  0  0  0  0
   32.3203   37.6273   64.7476 C   0  0  0  0  0  0  0  0  0  0  0  0
   32.4372   37.2197   66.0595 C   0  0  0  0  0  0  0  0  0  0  0  0
   31.8623   36.0286   66.4718 C   0  0  0  0  0  0  0  0  0  0  0  0
   32.0200   35.5194   68.1238 Cl  0  0  0  0  0  0  0  0  0  0  0  0
   31.1628   35.2419   65.5715 C   0  0  0  0  0  0  0  0  0  0  0  0
   31.0338   35.6406   64.2579 C   0  0  0  0  0  0  0  0  0  0  0  0
   32.3667   38.0172   61.7519 O   0  0  0  0  0  0  0  0  0  0  0  0
   32.8435   36.8819   58.0106 C   0  0  0  0  0  0  0  0  0  0  0  0
   32.4509   36.0176   58.7704 O   0  0  0  0  0  0  0  0  0  0  0  0
   33.3216   36.6749   56.6211 C   0  0  0  0  0  0  0  0  0  0  0  0
   33.4469   35.5237   55.8518 C   0  0  0  0  0  0  0  0  0  0  0  0
   33.9361   35.6042   54.5583 C   0  0  0  0  0  0  0  0  0  0  0  0
   34.3013   36.8254   54.0254 C   0  0  0  0  0  0  0  0  0  0  0  0
   34.1824   37.9813   54.7794 C   0  0  0  0  0  0  0  0  0  0  0  0
   33.6930   37.9168   56.0792 C   0  0  0  0  0  0  0  0  0  0  0  0
   32.8059   39.9890   59.6415 H   0  0  0  0  0  0  0  0  0  0  0  0
   30.0666   37.5519   59.4862 H   0  0  0  0  0  0  0  0  0  0  0  0
   29.5419   36.4032   61.8496 H   0  0  0  0  0  0  0  0  0  0  0  0
   32.7724   38.5540   64.4265 H   0  0  0  0  0  0  0  0  0  0  0  0
   32.9820   37.8280   66.7663 H   0  0  0  0  0  0  0  0  0  0  0  0
   30.7176   34.3141   65.8992 H   0  0  0  0  0  0  0  0  0  0  0  0
   30.4878   35.0265   63.5571 H   0  0  0  0  0  0  0  0  0  0  0  0
   33.1630   34.5661   56.2628 H   0  0  0  0  0  0  0  0  0  0  0  0
   34.0322   34.7080   53.9633 H   0  0  0  0  0  0  0  0  0  0  0  0
   34.6811   36.8792   53.0158 H   0  0  0  0  0  0  0  0  0  0  0  0
   34.4695   38.9331   54.3574 H   0  0  0  0  0  0  0  0  0  0  0  0
  1  2  2  0  0  0  0
  2 24  1  0  0  0  0
  2  3  1  0  0  0  0
  3  4  2  0  0  0  0
  3 17  1  0  0  0  0
  4  5  1  0  0  0  0
  4 25  1  0  0  0  0
  5 16  1  0  0  0  0
  5  6  2  0  0  0  0
  6  7  1  0  0  0  0
  6 26  1  0  0  0  0
  7  8  2  0  0  0  0
  7 27  1  0  0  0  0
  8  9  1  0  0  0  0
  8 16  1  0  0  0  0
  9 15  2  0  0  0  0
  9 10  1  0  0  0  0
 10 11  2  0  0  0  0
 10 28  1  0  0  0  0
 11 12  1  0  0  0  0
 11 29  1  0  0  0  0
 12 13  1  0  0  0  0
 12 14  2  0  0  0  0
 14 15  1  0  0  0  0
 14 30  1  0  0  0  0
 15 31  1  0  0  0  0
 17 18  2  0  0  0  0
 17 19  1  0  0  0  0
 19 24  2  0  0  0  0
 19 20  1  0  0  0  0
 20 21  2  0  0  0  0
 20 32  1  0  0  0  0
 21 22  1  0  0  0  0
 21 33  1  0  0  0  0
 22 23  2  0  0  0  0
 22 34  1  0  0  0  0
 23 24  1  0  0  0  0
 23 35  1  0  0  0  0
M  END
$$$$
