ZINC000000029351      none
 OpenBabel11202420163D

 31 32  0  0  0  0  0  0  0  0999 V2000
   34.6903   33.0200   55.4455 C   0  0  0  0  0  0  0  0  0  0  0  0
   34.0724   33.5401   56.6245 O   0  0  0  0  0  0  0  0  0  0  0  0
   33.6958   34.8464   56.5990 C   0  0  0  0  0  0  0  0  0  0  0  0
   33.9179   35.6097   55.4621 C   0  0  0  0  0  0  0  0  0  0  0  0
   33.5366   36.9382   55.4330 C   0  0  0  0  0  0  0  0  0  0  0  0
   32.9316   37.5110   56.5394 C   0  0  0  0  0  0  0  0  0  0  0  0
   32.5568   38.8186   56.5097 O   0  0  0  0  0  0  0  0  0  0  0  0
   33.5224   39.7802   56.9398 C   0  0  0  0  0  0  0  0  0  0  0  0
   32.7123   36.7489   57.6845 C   0  0  0  0  0  0  0  0  0  0  0  0
   32.1061   37.3270   58.8066 N   0  0  0  0  0  0  0  0  0  0  0  0
   31.3594   36.5698   59.6344 C   0  0  0  0  0  0  0  0  0  0  0  0
   31.2119   35.3832   59.4066 O   0  0  0  0  0  0  0  0  0  0  0  0
   30.7250   37.1748   60.8089 C   0  0  0  0  0  0  0  0  0  0  0  0
   31.2071   38.2465   61.5065 C   0  0  0  0  0  0  0  0  0  0  0  0
   30.4103   38.6078   62.5669 C   0  0  0  0  0  0  0  0  0  0  0  0
   29.3136   37.8595   62.7339 C   0  0  0  0  0  0  0  0  0  0  0  0
   29.2178   36.6427   61.5417 S   0  0  0  0  0  0  0  0  0  0  0  0
   33.0906   35.4145   57.7092 C   0  0  0  0  0  0  0  0  0  0  0  0
   35.5994   33.5827   55.2334 H   0  0  0  0  0  0  0  0  0  0  0  0
   34.9405   31.9703   55.5994 H   0  0  0  0  0  0  0  0  0  0  0  0
   34.0026   33.1102   54.6048 H   0  0  0  0  0  0  0  0  0  0  0  0
   34.3899   35.1653   54.5983 H   0  0  0  0  0  0  0  0  0  0  0  0
   33.7111   37.5302   54.5466 H   0  0  0  0  0  0  0  0  0  0  0  0
   33.8002   39.5786   57.9743 H   0  0  0  0  0  0  0  0  0  0  0  0
   34.4072   39.7147   56.3065 H   0  0  0  0  0  0  0  0  0  0  0  0
   33.0963   40.7808   56.8663 H   0  0  0  0  0  0  0  0  0  0  0  0
   32.2238   38.2726   58.9881 H   0  0  0  0  0  0  0  0  0  0  0  0
   32.1229   38.7584   61.2504 H   0  0  0  0  0  0  0  0  0  0  0  0
   30.6517   39.4354   63.2176 H   0  0  0  0  0  0  0  0  0  0  0  0
   28.5839   38.0089   63.5158 H   0  0  0  0  0  0  0  0  0  0  0  0
   32.9179   34.8200   58.5941 H   0  0  0  0  0  0  0  0  0  0  0  0
  1  2  1  0  0  0  0
  1 19  1  0  0  0  0
  1 20  1  0  0  0  0
  1 21  1  0  0  0  0
  2  3  1  0  0  0  0
  3 18  2  0  0  0  0
  3  4  1  0  0  0  0
  4  5  2  0  0  0  0
  4 22  1  0  0  0  0
  5  6  1  0  0  0  0
  5 23  1  0  0  0  0
  6  7  1  0  0  0  0
  6  9  2  0  0  0  0
  7  8  1  0  0  0  0
  8 24  1  0  0  0  0
  8 25  1  0  0  0  0
  8 26  1  0  0  0  0
  9 10  1  0  0  0  0
  9 18  1  0  0  0  0
 10 11  1  0  0  0  0
 10 27  1  0  0  0  0
 11 12  2  0  0  0  0
 11 13  1  0  0  0  0
 13 17  1  0  0  0  0
 13 14  2  0  0  0  0
 14 15  1  0  0  0  0
 14 28  1  0  0  0  0
 15 16  2  0  0  0  0
 15 29  1  0  0  0  0
 16 17  1  0  0  0  0
 16 30  1  0  0  0  0
 18 31  1  0  0  0  0
M  END
$$$$
