ZINC000000032621      none
 OpenBabel11202420153D

 27 29  0  0  0  0  0  0  0  0999 V2000
   33.2694   40.8514   58.9816 N   0  0  0  0  0  0  0  0  0  0  0  0
   33.2132   39.5889   58.4049 C   0  0  0  0  0  0  0  0  0  0  0  0
   33.5361   39.2283   57.1848 N   0  0  0  0  0  0  0  0  0  0  0  0
   33.3509   38.0414   57.0537 O   0  0  0  0  0  0  0  0  0  0  0  0
   32.9276   37.4588   58.0242 N   0  0  0  0  0  0  0  0  0  0  0  0
   32.7737   38.3119   59.0121 C   0  0  0  0  0  0  0  0  0  0  0  0
   32.2830   38.0587   60.3902 C   0  0  0  0  0  0  0  0  0  0  0  0
   31.2305   38.5955   60.9500 N   0  0  0  0  0  0  0  0  0  0  0  0
   31.1033   38.1805   62.0825 O   0  0  0  0  0  0  0  0  0  0  0  0
   32.0840   37.3176   62.3665 C   0  0  0  0  0  0  0  0  0  0  0  0
   32.2810   36.5828   63.6674 C   0  0  0  0  0  0  0  0  0  0  0  0
   31.0230   35.7553   64.0026 C   0  0  0  0  0  0  0  0  0  0  0  0
   30.8918   35.8717   65.5424 C   0  0  0  0  0  0  0  0  0  0  0  0
   31.3144   37.3372   65.8122 C   0  0  0  0  0  0  0  0  0  0  0  0
   32.4665   37.5880   64.8176 C   0  0  0  0  0  0  0  0  0  0  0  0
   32.8376   37.2256   61.2992 N   0  0  0  0  0  0  0  0  0  0  0  0
   32.9966   40.9758   59.9041 H   0  0  0  0  0  0  0  0  0  0  0  0
   33.5815   41.6086   58.4618 H   0  0  0  0  0  0  0  0  0  0  0  0
   33.1506   35.9292   63.5987 H   0  0  0  0  0  0  0  0  0  0  0  0
   30.1462   36.1782   63.5122 H   0  0  0  0  0  0  0  0  0  0  0  0
   31.1612   34.7149   63.7083 H   0  0  0  0  0  0  0  0  0  0  0  0
   31.5677   35.1768   66.0406 H   0  0  0  0  0  0  0  0  0  0  0  0
   29.8629   35.7018   65.8592 H   0  0  0  0  0  0  0  0  0  0  0  0
   31.6647   37.4504   66.8383 H   0  0  0  0  0  0  0  0  0  0  0  0
   30.4859   38.0176   65.6157 H   0  0  0  0  0  0  0  0  0  0  0  0
   33.4259   37.4217   65.3077 H   0  0  0  0  0  0  0  0  0  0  0  0
   32.4150   38.6072   64.4347 H   0  0  0  0  0  0  0  0  0  0  0  0
  1  2  1  0  0  0  0
  1 17  1  0  0  0  0
  1 18  1  0  0  0  0
  2  6  1  0  0  0  0
  2  3  2  0  0  0  0
  3  4  1  0  0  0  0
  4  5  1  0  0  0  0
  5  6  2  0  0  0  0
  6  7  1  0  0  0  0
  7 16  1  0  0  0  0
  7  8  2  0  0  0  0
  8  9  1  0  0  0  0
  9 10  1  0  0  0  0
 10 11  1  0  0  0  0
 10 16  2  0  0  0  0
 11 15  1  0  0  0  0
 11 12  1  0  0  0  0
 11 19  1  0  0  0  0
 12 13  1  0  0  0  0
 12 20  1  0  0  0  0
 12 21  1  0  0  0  0
 13 14  1  0  0  0  0
 13 22  1  0  0  0  0
 13 23  1  0  0  0  0
 14 15  1  0  0  0  0
 14 24  1  0  0  0  0
 14 25  1  0  0  0  0
 15 26  1  0  0  0  0
 15 27  1  0  0  0  0
M  END
$$$$
