ZINC000000051166      none
 OpenBabel11202420153D

 37 39  0  0  0  0  0  0  0  0999 V2000
   35.1933   38.5360   52.2883 C   0  0  0  0  0  0  0  0  0  0  0  0
   34.6907   37.5110   53.1479 O   0  0  0  0  0  0  0  0  0  0  0  0
   34.3190   37.8840   54.4015 C   0  0  0  0  0  0  0  0  0  0  0  0
   34.4372   39.2153   54.7934 C   0  0  0  0  0  0  0  0  0  0  0  0
   34.0645   39.6090   56.0600 C   0  0  0  0  0  0  0  0  0  0  0  0
   33.5644   38.6777   56.9636 C   0  0  0  0  0  0  0  0  0  0  0  0
   33.2012   39.0742   58.2031 O   0  0  0  0  0  0  0  0  0  0  0  0
   32.7143   38.2043   59.1029 C   0  0  0  0  0  0  0  0  0  0  0  0
   32.3954   38.5921   60.2113 O   0  0  0  0  0  0  0  0  0  0  0  0
   32.5653   36.7870   58.7525 C   0  0  0  0  0  0  0  0  0  0  0  0
   32.0331   35.8255   59.7305 C   0  0  0  0  0  0  0  0  0  0  0  0
   32.3889   34.6638   59.6961 O   0  0  0  0  0  0  0  0  0  0  0  0
   31.1510   36.2329   60.6648 O   0  0  0  0  0  0  0  0  0  0  0  0
   31.1634   35.5288   61.9346 C   0  0  0  0  0  0  0  0  0  0  0  0
   31.4720   36.5001   63.0447 C   0  0  0  0  0  0  0  0  0  0  0  0
   32.1277   36.0651   64.1812 C   0  0  0  0  0  0  0  0  0  0  0  0
   32.4153   36.9571   65.1974 C   0  0  0  0  0  0  0  0  0  0  0  0
   32.0382   38.2820   65.0814 C   0  0  0  0  0  0  0  0  0  0  0  0
   31.3775   38.7156   63.9473 C   0  0  0  0  0  0  0  0  0  0  0  0
   31.0946   37.8248   62.9288 C   0  0  0  0  0  0  0  0  0  0  0  0
   32.9401   36.3703   57.4859 C   0  0  0  0  0  0  0  0  0  0  0  0
   33.4427   37.3319   56.5734 C   0  0  0  0  0  0  0  0  0  0  0  0
   33.8257   36.9430   55.2807 C   0  0  0  0  0  0  0  0  0  0  0  0
   34.4303   39.3023   52.1519 H   0  0  0  0  0  0  0  0  0  0  0  0
   36.0809   38.9828   52.7363 H   0  0  0  0  0  0  0  0  0  0  0  0
   35.4522   38.1047   51.3214 H   0  0  0  0  0  0  0  0  0  0  0  0
   34.8243   39.9456   54.0982 H   0  0  0  0  0  0  0  0  0  0  0  0
   34.1612   40.6442   56.3521 H   0  0  0  0  0  0  0  0  0  0  0  0
   30.1871   35.0763   62.1087 H   0  0  0  0  0  0  0  0  0  0  0  0
   31.9258   34.7500   61.9108 H   0  0  0  0  0  0  0  0  0  0  0  0
   32.4187   35.0290   64.2737 H   0  0  0  0  0  0  0  0  0  0  0  0
   32.9312   36.6181   66.0836 H   0  0  0  0  0  0  0  0  0  0  0  0
   32.2595   38.9781   65.8768 H   0  0  0  0  0  0  0  0  0  0  0  0
   31.0826   39.7506   63.8567 H   0  0  0  0  0  0  0  0  0  0  0  0
   30.5785   38.1638   62.0427 H   0  0  0  0  0  0  0  0  0  0  0  0
   32.8467   35.3338   57.1973 H   0  0  0  0  0  0  0  0  0  0  0  0
   33.7341   35.9110   54.9755 H   0  0  0  0  0  0  0  0  0  0  0  0
  1  2  1  0  0  0  0
  1 24  1  0  0  0  0
  1 25  1  0  0  0  0
  1 26  1  0  0  0  0
  2  3  1  0  0  0  0
  3 23  2  0  0  0  0
  3  4  1  0  0  0  0
  4  5  2  0  0  0  0
  4 27  1  0  0  0  0
  5  6  1  0  0  0  0
  5 28  1  0  0  0  0
  6 22  2  0  0  0  0
  6  7  1  0  0  0  0
  7  8  1  0  0  0  0
  8  9  2  0  0  0  0
  8 10  1  0  0  0  0
 10 11  1  0  0  0  0
 10 21  2  0  0  0  0
 11 12  2  0  0  0  0
 11 13  1  0  0  0  0
 13 14  1  0  0  0  0
 14 15  1  0  0  0  0
 14 29  1  0  0  0  0
 14 30  1  0  0  0  0
 15 20  2  0  0  0  0
 15 16  1  0  0  0  0
 16 17  2  0  0  0  0
 16 31  1  0  0  0  0
 17 18  1  0  0  0  0
 17 32  1  0  0  0  0
 18 19  2  0  0  0  0
 18 33  1  0  0  0  0
 19 20  1  0  0  0  0
 19 34  1  0  0  0  0
 20 35  1  0  0  0  0
 21 22  1  0  0  0  0
 21 36  1  0  0  0  0
 22 23  1  0  0  0  0
 23 37  1  0  0  0  0
M  END
$$$$
