ZINC000000048289      none
 OpenBabel11202420153D

 47 48  0  0  0  0  0  0  0  0999 V2000
   33.0371   34.4211   55.0456 C   0  0  0  0  0  0  0  0  0  0  0  0
   32.6738   34.9376   56.4139 C   0  0  0  0  0  0  0  0  0  0  0  0
   32.2055   34.0630   57.3782 C   0  0  0  0  0  0  0  0  0  0  0  0
   31.8712   34.5293   58.6328 C   0  0  0  0  0  0  0  0  0  0  0  0
   31.3609   33.5753   59.6818 C   0  0  0  0  0  0  0  0  0  0  0  0
   32.0064   35.8869   58.9283 C   0  0  0  0  0  0  0  0  0  0  0  0
   31.6500   36.3937   60.2702 C   0  0  0  0  0  0  0  0  0  0  0  0
   30.5165   36.2614   60.6886 O   0  0  0  0  0  0  0  0  0  0  0  0
   32.5821   37.0024   61.0300 N   0  0  0  0  0  0  0  0  0  0  0  0
   32.2463   37.4800   62.2949 C   0  0  0  0  0  0  0  0  0  0  0  0
   32.9019   36.9877   63.4196 C   0  0  0  0  0  0  0  0  0  0  0  0
   32.5762   37.4610   64.6703 C   0  0  0  0  0  0  0  0  0  0  0  0
   31.5775   38.4291   64.8113 C   0  0  0  0  0  0  0  0  0  0  0  0
   31.2211   38.9336   66.1502 C   0  0  0  0  0  0  0  0  0  0  0  0
   31.7956   38.5079   67.1327 O   0  0  0  0  0  0  0  0  0  0  0  0
   30.2584   39.8668   66.2842 O   0  0  0  0  0  0  0  0  0  0  0  0
   29.9600   40.3172   67.6321 C   0  0  0  0  0  0  0  0  0  0  0  0
   30.8459   41.5160   67.9769 C   0  0  0  0  0  0  0  0  0  0  0  0
   28.4889   40.7287   67.7183 C   0  0  0  0  0  0  0  0  0  0  0  0
   30.9171   38.9175   63.6799 C   0  0  0  0  0  0  0  0  0  0  0  0
   31.2519   38.4441   62.4316 C   0  0  0  0  0  0  0  0  0  0  0  0
   32.4799   36.7638   57.9507 C   0  0  0  0  0  0  0  0  0  0  0  0
   32.6290   38.2311   58.2607 C   0  0  0  0  0  0  0  0  0  0  0  0
   32.8106   36.2844   56.7003 C   0  0  0  0  0  0  0  0  0  0  0  0
   32.1616   34.4615   54.3976 H   0  0  0  0  0  0  0  0  0  0  0  0
   33.8305   35.0377   54.6232 H   0  0  0  0  0  0  0  0  0  0  0  0
   33.3820   33.3902   55.1262 H   0  0  0  0  0  0  0  0  0  0  0  0
   32.0972   33.0137   57.1470 H   0  0  0  0  0  0  0  0  0  0  0  0
   32.2009   33.1799   60.2529 H   0  0  0  0  0  0  0  0  0  0  0  0
   30.6816   34.1020   60.3522 H   0  0  0  0  0  0  0  0  0  0  0  0
   30.8309   32.7542   59.1992 H   0  0  0  0  0  0  0  0  0  0  0  0
   33.4866   37.1080   60.6961 H   0  0  0  0  0  0  0  0  0  0  0  0
   33.6703   36.2366   63.3103 H   0  0  0  0  0  0  0  0  0  0  0  0
   33.0881   37.0811   65.5422 H   0  0  0  0  0  0  0  0  0  0  0  0
   30.1530   39.5082   68.3367 H   0  0  0  0  0  0  0  0  0  0  0  0
   31.8940   41.2229   67.9155 H   0  0  0  0  0  0  0  0  0  0  0  0
   30.6530   42.3250   67.2726 H   0  0  0  0  0  0  0  0  0  0  0  0
   30.6220   41.8541   68.9888 H   0  0  0  0  0  0  0  0  0  0  0  0
   27.8578   39.8747   67.4726 H   0  0  0  0  0  0  0  0  0  0  0  0
   28.2649   41.0668   68.7301 H   0  0  0  0  0  0  0  0  0  0  0  0
   28.2960   41.5377   67.0138 H   0  0  0  0  0  0  0  0  0  0  0  0
   30.1449   39.6651   63.7853 H   0  0  0  0  0  0  0  0  0  0  0  0
   30.7424   38.8210   61.5572 H   0  0  0  0  0  0  0  0  0  0  0  0
   31.7018   38.7499   58.0174 H   0  0  0  0  0  0  0  0  0  0  0  0
   32.8490   38.3580   59.3208 H   0  0  0  0  0  0  0  0  0  0  0  0
   33.4441   38.6466   57.6682 H   0  0  0  0  0  0  0  0  0  0  0  0
   33.1774   36.9617   55.9432 H   0  0  0  0  0  0  0  0  0  0  0  0
  1  2  1  0  0  0  0
  1 25  1  0  0  0  0
  1 26  1  0  0  0  0
  1 27  1  0  0  0  0
  2 24  2  0  0  0  0
  2  3  1  0  0  0  0
  3  4  2  0  0  0  0
  3 28  1  0  0  0  0
  4  5  1  0  0  0  0
  4  6  1  0  0  0  0
  5 29  1  0  0  0  0
  5 30  1  0  0  0  0
  5 31  1  0  0  0  0
  6  7  1  0  0  0  0
  6 22  2  0  0  0  0
  7  8  2  0  0  0  0
  7  9  1  0  0  0  0
  9 10  1  0  0  0  0
  9 32  1  0  0  0  0
 10 21  2  0  0  0  0
 10 11  1  0  0  0  0
 11 12  2  0  0  0  0
 11 33  1  0  0  0  0
 12 13  1  0  0  0  0
 12 34  1  0  0  0  0
 13 14  1  0  0  0  0
 13 20  2  0  0  0  0
 14 15  2  0  0  0  0
 14 16  1  0  0  0  0
 16 17  1  0  0  0  0
 17 18  1  0  0  0  0
 17 19  1  0  0  0  0
 17 35  1  0  0  0  0
 18 36  1  0  0  0  0
 18 37  1  0  0  0  0
 18 38  1  0  0  0  0
 19 39  1  0  0  0  0
 19 40  1  0  0  0  0
 19 41  1  0  0  0  0
 20 21  1  0  0  0  0
 20 42  1  0  0  0  0
 21 43  1  0  0  0  0
 22 23  1  0  0  0  0
 22 24  1  0  0  0  0
 23 44  1  0  0  0  0
 23 45  1  0  0  0  0
 23 46  1  0  0  0  0
 24 47  1  0  0  0  0
M  END
$$$$
