ZINC000000037583      none
 OpenBabel11202420153D

 26 27  0  0  0  0  0  0  0  0999 V2000
   29.7652   35.5951   61.1177 O   0  0  0  0  0  0  0  0  0  0  0  0
   30.7953   34.9553   60.3769 S   0  0  0  0  0  0  0  0  0  0  0  0
   30.5524   33.8896   59.4688 O   0  0  0  0  0  0  0  0  0  0  0  0
   31.8843   34.3853   61.4865 N   0  0  0  0  0  0  0  0  0  0  0  0
   31.9624   34.9680   62.7478 C   0  0  0  0  0  0  0  0  0  0  0  0
   32.8258   36.0361   62.9904 C   0  0  0  0  0  0  0  0  0  0  0  0
   32.8693   36.5891   64.2529 C   0  0  0  0  0  0  0  0  0  0  0  0
   32.1156   36.1132   65.2263 N   0  0  0  0  0  0  0  0  0  0  0  0
   31.2900   35.1006   65.0383 C   0  0  0  0  0  0  0  0  0  0  0  0
   31.1832   34.4955   63.8038 C   0  0  0  0  0  0  0  0  0  0  0  0
   31.6040   36.2203   59.4546 C   0  0  0  0  0  0  0  0  0  0  0  0
   31.5484   37.5326   59.8857 C   0  0  0  0  0  0  0  0  0  0  0  0
   32.1790   38.5258   59.1604 C   0  0  0  0  0  0  0  0  0  0  0  0
   32.8743   38.2052   58.0081 C   0  0  0  0  0  0  0  0  0  0  0  0
   33.6725   39.4512   57.1004 Cl  0  0  0  0  0  0  0  0  0  0  0  0
   32.9336   36.8910   57.5797 C   0  0  0  0  0  0  0  0  0  0  0  0
   32.2982   35.8993   58.3031 C   0  0  0  0  0  0  0  0  0  0  0  0
   32.4679   33.6450   61.2572 H   0  0  0  0  0  0  0  0  0  0  0  0
   33.4489   36.4271   62.1996 H   0  0  0  0  0  0  0  0  0  0  0  0
   33.5320   37.4190   64.4488 H   0  0  0  0  0  0  0  0  0  0  0  0
   30.6908   34.7412   65.8616 H   0  0  0  0  0  0  0  0  0  0  0  0
   30.5056   33.6676   63.6565 H   0  0  0  0  0  0  0  0  0  0  0  0
   31.0093   37.7821   60.7877 H   0  0  0  0  0  0  0  0  0  0  0  0
   32.1327   39.5515   59.4954 H   0  0  0  0  0  0  0  0  0  0  0  0
   33.4765   36.6399   56.6804 H   0  0  0  0  0  0  0  0  0  0  0  0
   32.3444   34.8733   57.9688 H   0  0  0  0  0  0  0  0  0  0  0  0
  1  2  2  0  0  0  0
  2  3  2  0  0  0  0
  2  4  1  0  0  0  0
  2 11  1  0  0  0  0
  4  5  1  0  0  0  0
  4 18  1  0  0  0  0
  5 10  2  0  0  0  0
  5  6  1  0  0  0  0
  6  7  2  0  0  0  0
  6 19  1  0  0  0  0
  7  8  1  0  0  0  0
  7 20  1  0  0  0  0
  8  9  2  0  0  0  0
  9 10  1  0  0  0  0
  9 21  1  0  0  0  0
 10 22  1  0  0  0  0
 11 17  2  0  0  0  0
 11 12  1  0  0  0  0
 12 13  2  0  0  0  0
 12 23  1  0  0  0  0
 13 14  1  0  0  0  0
 13 24  1  0  0  0  0
 14 15  1  0  0  0  0
 14 16  2  0  0  0  0
 16 17  1  0  0  0  0
 16 25  1  0  0  0  0
 17 26  1  0  0  0  0
M  END
$$$$
