ZINC000000036149      none
 OpenBabel11202420153D

 37 38  0  0  0  0  0  0  0  0999 V2000
   32.7049   34.0793   61.9825 O   0  0  0  0  0  0  0  0  0  0  0  0
   31.7070   33.9947   61.2982 C   0  0  0  0  0  0  0  0  0  0  0  0
   31.5025   32.7956   60.4088 C   0  0  0  0  0  0  0  0  0  0  0  0
   31.3724   33.3382   58.6827 S   0  0  0  0  0  0  0  0  0  0  0  0
   32.9639   34.1586   58.3918 C   0  0  0  0  0  0  0  0  0  0  0  0
   33.0122   34.6736   56.9762 C   0  0  0  0  0  0  0  0  0  0  0  0
   32.6195   35.7929   56.7246 O   0  0  0  0  0  0  0  0  0  0  0  0
   33.5361   33.8181   55.8994 C   0  0  0  0  0  0  0  0  0  0  0  0
   33.0501   33.9531   54.5951 C   0  0  0  0  0  0  0  0  0  0  0  0
   33.5495   33.1510   53.5909 C   0  0  0  0  0  0  0  0  0  0  0  0
   34.5216   32.2077   53.8726 C   0  0  0  0  0  0  0  0  0  0  0  0
   35.0483   31.3471   52.7897 N   0  0  0  0  0  0  0  0  0  0  0  0
   34.6266   31.4702   51.6542 O   0  0  0  0  0  0  0  0  0  0  0  0
   35.9045   30.5153   53.0349 O   0  0  0  0  0  0  0  0  0  0  0  0
   35.0037   32.0638   55.1624 C   0  0  0  0  0  0  0  0  0  0  0  0
   34.5183   32.8620   56.1766 C   0  0  0  0  0  0  0  0  0  0  0  0
   30.7810   34.9734   61.3335 N   0  0  0  0  0  0  0  0  0  0  0  0
   30.9709   36.0869   62.1593 C   0  0  0  0  0  0  0  0  0  0  0  0
   30.4458   37.3202   61.7962 C   0  0  0  0  0  0  0  0  0  0  0  0
   30.6304   38.4161   62.6162 C   0  0  0  0  0  0  0  0  0  0  0  0
   31.3466   38.2887   63.7922 C   0  0  0  0  0  0  0  0  0  0  0  0
   31.8756   37.0633   64.1538 C   0  0  0  0  0  0  0  0  0  0  0  0
   31.6896   35.9623   63.3410 C   0  0  0  0  0  0  0  0  0  0  0  0
   30.5863   32.2808   60.6978 H   0  0  0  0  0  0  0  0  0  0  0  0
   32.3491   32.1170   60.5135 H   0  0  0  0  0  0  0  0  0  0  0  0
   33.7739   33.4459   58.5469 H   0  0  0  0  0  0  0  0  0  0  0  0
   33.0753   34.9918   59.0855 H   0  0  0  0  0  0  0  0  0  0  0  0
   32.2887   34.6864   54.3741 H   0  0  0  0  0  0  0  0  0  0  0  0
   33.1782   33.2568   52.5822 H   0  0  0  0  0  0  0  0  0  0  0  0
   35.7623   31.3248   55.3746 H   0  0  0  0  0  0  0  0  0  0  0  0
   34.8954   32.7487   57.1822 H   0  0  0  0  0  0  0  0  0  0  0  0
   29.9829   34.9059   60.7863 H   0  0  0  0  0  0  0  0  0  0  0  0
   29.8898   37.4212   60.8759 H   0  0  0  0  0  0  0  0  0  0  0  0
   30.2185   39.3745   62.3365 H   0  0  0  0  0  0  0  0  0  0  0  0
   31.4935   39.1483   64.4295 H   0  0  0  0  0  0  0  0  0  0  0  0
   32.4346   36.9671   65.0729 H   0  0  0  0  0  0  0  0  0  0  0  0
   32.1031   35.0055   63.6239 H   0  0  0  0  0  0  0  0  0  0  0  0
  1  2  2  0  0  0  0
  2  3  1  0  0  0  0
  2 17  1  0  0  0  0
  3  4  1  0  0  0  0
  3 24  1  0  0  0  0
  3 25  1  0  0  0  0
  4  5  1  0  0  0  0
  5  6  1  0  0  0  0
  5 26  1  0  0  0  0
  5 27  1  0  0  0  0
  6  7  2  0  0  0  0
  6  8  1  0  0  0  0
  8 16  2  0  0  0  0
  8  9  1  0  0  0  0
  9 10  2  0  0  0  0
  9 28  1  0  0  0  0
 10 11  1  0  0  0  0
 10 29  1  0  0  0  0
 11 12  1  0  0  0  0
 11 15  2  0  0  0  0
 12 13  2  0  0  0  0
 12 14  2  0  0  0  0
 15 16  1  0  0  0  0
 15 30  1  0  0  0  0
 16 31  1  0  0  0  0
 17 18  1  0  0  0  0
 17 32  1  0  0  0  0
 18 23  2  0  0  0  0
 18 19  1  0  0  0  0
 19 20  2  0  0  0  0
 19 33  1  0  0  0  0
 20 21  1  0  0  0  0
 20 34  1  0  0  0  0
 21 22  2  0  0  0  0
 21 35  1  0  0  0  0
 22 23  1  0  0  0  0
 22 36  1  0  0  0  0
 23 37  1  0  0  0  0
M  END
$$$$
