ZINC000000041458      none
 OpenBabel11202420153D

 34 36  0  0  0  0  0  0  0  0999 V2000
   28.3916   36.4014   66.0568 O   0  0  0  0  0  0  0  0  0  0  0  0
   29.4087   36.9663   65.7006 C   0  0  0  0  0  0  0  0  0  0  0  0
   29.9538   37.9749   66.4316 N   0  0  0  0  0  0  0  0  0  0  0  0
   30.9947   38.8147   65.8540 C   0  0  0  0  0  0  0  0  0  0  0  0
   32.3775   38.1605   65.8913 C   0  0  0  0  0  0  0  0  0  0  0  0
   32.2764   36.7568   65.4702 N   0  0  0  0  0  0  0  0  0  0  0  0
   31.4528   36.4549   64.4063 C   0  0  0  0  0  0  0  0  0  0  0  0
   30.1008   36.5898   64.4634 C   0  0  0  0  0  0  0  0  0  0  0  0
   29.5577   36.2806   63.1032 C   0  0  0  0  0  0  0  0  0  0  0  0
   30.7194   35.8993   62.2840 N   0  0  0  0  0  0  0  0  0  0  0  0
   30.6838   35.4855   60.8791 C   0  0  0  0  0  0  0  0  0  0  0  0
   31.5161   36.4338   60.0550 C   0  0  0  0  0  0  0  0  0  0  0  0
   32.1493   35.9830   58.9118 C   0  0  0  0  0  0  0  0  0  0  0  0
   32.9127   36.8529   58.1559 C   0  0  0  0  0  0  0  0  0  0  0  0
   33.0419   38.1738   58.5424 C   0  0  0  0  0  0  0  0  0  0  0  0
   32.4126   38.6235   59.6881 C   0  0  0  0  0  0  0  0  0  0  0  0
   31.6456   37.7546   60.4417 C   0  0  0  0  0  0  0  0  0  0  0  0
   31.8233   36.0035   63.0521 C   0  0  0  0  0  0  0  0  0  0  0  0
   32.9550   35.7608   62.6831 O   0  0  0  0  0  0  0  0  0  0  0  0
   29.6496   38.1353   67.3386 H   0  0  0  0  0  0  0  0  0  0  0  0
   31.0353   39.7534   66.4065 H   0  0  0  0  0  0  0  0  0  0  0  0
   30.7356   39.0291   64.8172 H   0  0  0  0  0  0  0  0  0  0  0  0
   32.7729   38.2068   66.9059 H   0  0  0  0  0  0  0  0  0  0  0  0
   33.0475   38.6936   65.2168 H   0  0  0  0  0  0  0  0  0  0  0  0
   32.7751   36.0618   65.9276 H   0  0  0  0  0  0  0  0  0  0  0  0
   29.0723   37.1604   62.6808 H   0  0  0  0  0  0  0  0  0  0  0  0
   28.8511   35.4525   63.1620 H   0  0  0  0  0  0  0  0  0  0  0  0
   29.6541   35.5011   60.5217 H   0  0  0  0  0  0  0  0  0  0  0  0
   31.0852   34.4762   60.7874 H   0  0  0  0  0  0  0  0  0  0  0  0
   32.0481   34.9510   58.6097 H   0  0  0  0  0  0  0  0  0  0  0  0
   33.4078   36.5006   57.2631 H   0  0  0  0  0  0  0  0  0  0  0  0
   33.6383   38.8534   57.9517 H   0  0  0  0  0  0  0  0  0  0  0  0
   32.5171   39.6544   59.9925 H   0  0  0  0  0  0  0  0  0  0  0  0
   31.1506   38.1069   61.3345 H   0  0  0  0  0  0  0  0  0  0  0  0
  1  2  2  0  0  0  0
  2  8  1  0  0  0  0
  2  3  1  0  0  0  0
  3  4  1  0  0  0  0
  3 20  1  0  0  0  0
  4  5  1  0  0  0  0
  4 21  1  0  0  0  0
  4 22  1  0  0  0  0
  5  6  1  0  0  0  0
  5 23  1  0  0  0  0
  5 24  1  0  0  0  0
  6  7  1  0  0  0  0
  6 25  1  0  0  0  0
  7 18  1  0  0  0  0
  7  8  2  0  0  0  0
  8  9  1  0  0  0  0
  9 10  1  0  0  0  0
  9 26  1  0  0  0  0
  9 27  1  0  0  0  0
 10 11  1  0  0  0  0
 10 18  1  0  0  0  0
 11 12  1  0  0  0  0
 11 28  1  0  0  0  0
 11 29  1  0  0  0  0
 12 17  2  0  0  0  0
 12 13  1  0  0  0  0
 13 14  2  0  0  0  0
 13 30  1  0  0  0  0
 14 15  1  0  0  0  0
 14 31  1  0  0  0  0
 15 16  2  0  0  0  0
 15 32  1  0  0  0  0
 16 17  1  0  0  0  0
 16 33  1  0  0  0  0
 17 34  1  0  0  0  0
 18 19  2  0  0  0  0
M  END
$$$$
