ZINC000000022626      none
 OpenBabel11202420153D

 31 33  0  0  1  0  0  0  0  0999 V2000
   30.0711   37.1259   62.6491 C   0  0  0  0  0  0  0  0  0  0  0  0
   30.4537   36.1875   61.5028 C   0  0  2  0  0  0  0  0  0  0  0  0
   29.6298   36.1232   60.7920 H   0  0  0  0  0  0  0  0  0  0  0  0
   30.7537   34.8158   62.0522 C   0  0  0  0  0  0  0  0  0  0  0  0
   30.1527   34.4123   63.0285 O   0  0  0  0  0  0  0  0  0  0  0  0
   31.7197   34.0039   61.4462 C   0  0  0  0  0  0  0  0  0  0  0  0
   32.4198   34.4375   60.3711 C   0  0  0  0  0  0  0  0  0  0  0  0
   32.1969   35.6950   59.8776 N   0  0  0  0  0  0  0  0  0  0  0  0
   32.4399   35.9562   58.5300 C   0  0  0  0  0  0  0  0  0  0  0  0
   32.5304   34.9133   57.6162 C   0  0  0  0  0  0  0  0  0  0  0  0
   32.8034   35.1826   56.2896 C   0  0  0  0  0  0  0  0  0  0  0  0
   32.9913   36.4855   55.8656 C   0  0  0  0  0  0  0  0  0  0  0  0
   32.9011   37.5288   56.7714 C   0  0  0  0  0  0  0  0  0  0  0  0
   32.6270   37.2641   58.0935 C   0  0  0  0  0  0  0  0  0  0  0  0
   32.5059   38.3785   59.1065 C   0  0  0  0  0  0  0  0  0  0  0  0
   31.3441   38.0070   60.0419 C   0  0  0  0  0  0  0  0  0  0  0  0
   31.7023   36.7261   60.7938 C   0  0  1  0  0  0  0  0  0  0  0  0
   32.4678   36.9458   61.5380 H   0  0  0  0  0  0  0  0  0  0  0  0
   29.8622   38.1191   62.2513 H   0  0  0  0  0  0  0  0  0  0  0  0
   29.1836   36.7420   63.1521 H   0  0  0  0  0  0  0  0  0  0  0  0
   30.8948   37.1853   63.3604 H   0  0  0  0  0  0  0  0  0  0  0  0
   31.9093   33.0169   61.8416 H   0  0  0  0  0  0  0  0  0  0  0  0
   33.1513   33.7941   59.9051 H   0  0  0  0  0  0  0  0  0  0  0  0
   32.3829   33.8942   57.9420 H   0  0  0  0  0  0  0  0  0  0  0  0
   32.8702   34.3715   55.5795 H   0  0  0  0  0  0  0  0  0  0  0  0
   33.2082   36.6894   54.8274 H   0  0  0  0  0  0  0  0  0  0  0  0
   33.0458   38.5470   56.4413 H   0  0  0  0  0  0  0  0  0  0  0  0
   33.4304   38.4648   59.6774 H   0  0  0  0  0  0  0  0  0  0  0  0
   32.2902   39.3196   58.6007 H   0  0  0  0  0  0  0  0  0  0  0  0
   31.1774   38.8142   60.7552 H   0  0  0  0  0  0  0  0  0  0  0  0
   30.4399   37.8464   59.4547 H   0  0  0  0  0  0  0  0  0  0  0  0
  1  2  1  0  0  0  0
  1 19  1  0  0  0  0
  1 20  1  0  0  0  0
  1 21  1  0  0  0  0
  2  3  1  6  0  0  0
  2 17  1  0  0  0  0
  2  4  1  0  0  0  0
  4  5  2  0  0  0  0
  4  6  1  0  0  0  0
  6  7  2  0  0  0  0
  6 22  1  0  0  0  0
  7  8  1  0  0  0  0
  7 23  1  0  0  0  0
  8 17  1  0  0  0  0
  8  9  1  0  0  0  0
  9 14  2  0  0  0  0
  9 10  1  0  0  0  0
 10 11  2  0  0  0  0
 10 24  1  0  0  0  0
 11 12  1  0  0  0  0
 11 25  1  0  0  0  0
 12 13  2  0  0  0  0
 12 26  1  0  0  0  0
 13 14  1  0  0  0  0
 13 27  1  0  0  0  0
 14 15  1  0  0  0  0
 15 16  1  0  0  0  0
 15 28  1  0  0  0  0
 15 29  1  0  0  0  0
 16 17  1  0  0  0  0
 16 30  1  0  0  0  0
 16 31  1  0  0  0  0
 17 18  1  1  0  0  0
M  END
$$$$
