ZINC000000057595      none
 OpenBabel11202420153D

 27 28  0  0  0  0  0  0  0  0999 V2000
   30.2362   38.6944   62.8702 C   0  0  0  0  0  0  0  0  0  0  0  0
   30.9049   37.8105   61.8156 C   0  0  0  0  0  0  0  0  0  0  0  0
   32.0475   38.4843   61.2840 O   0  0  0  0  0  0  0  0  0  0  0  0
   32.3833   38.2076   59.9982 C   0  0  0  0  0  0  0  0  0  0  0  0
   32.0954   36.9532   59.4633 C   0  0  0  0  0  0  0  0  0  0  0  0
   32.4259   36.6599   58.1723 C   0  0  0  0  0  0  0  0  0  0  0  0
   33.0583   37.6250   57.3799 C   0  0  0  0  0  0  0  0  0  0  0  0
   33.4241   37.3385   55.9911 C   0  0  0  0  0  0  0  0  0  0  0  0
   33.1306   35.9950   55.3748 C   0  0  0  0  0  0  0  0  0  0  0  0
   32.5022   35.1761   56.3190 F   0  0  0  0  0  0  0  0  0  0  0  0
   32.2896   36.1626   54.2695 F   0  0  0  0  0  0  0  0  0  0  0  0
   34.3278   35.3990   54.9638 F   0  0  0  0  0  0  0  0  0  0  0  0
   34.0351   38.3168   55.2735 C   0  0  0  0  0  0  0  0  0  0  0  0
   34.2989   39.5655   55.8729 C   0  0  0  0  0  0  0  0  0  0  0  0
   34.8473   40.4339   55.2183 O   0  0  0  0  0  0  0  0  0  0  0  0
   33.9615   39.8215   57.1465 O   0  0  0  0  0  0  0  0  0  0  0  0
   33.3520   38.8931   57.9145 C   0  0  0  0  0  0  0  0  0  0  0  0
   33.0041   39.1762   59.2267 C   0  0  0  0  0  0  0  0  0  0  0  0
   30.9436   38.8996   63.6737 H   0  0  0  0  0  0  0  0  0  0  0  0
   29.9241   39.6332   62.4125 H   0  0  0  0  0  0  0  0  0  0  0  0
   29.3648   38.1805   63.2756 H   0  0  0  0  0  0  0  0  0  0  0  0
   30.1976   37.6053   61.0119 H   0  0  0  0  0  0  0  0  0  0  0  0
   31.2170   36.8718   62.2732 H   0  0  0  0  0  0  0  0  0  0  0  0
   31.6074   36.2085   60.0746 H   0  0  0  0  0  0  0  0  0  0  0  0
   32.2004   35.6862   57.7632 H   0  0  0  0  0  0  0  0  0  0  0  0
   34.3182   38.1386   54.2466 H   0  0  0  0  0  0  0  0  0  0  0  0
   33.2197   40.1474   59.6470 H   0  0  0  0  0  0  0  0  0  0  0  0
  1  2  1  0  0  0  0
  1 19  1  0  0  0  0
  1 20  1  0  0  0  0
  1 21  1  0  0  0  0
  2  3  1  0  0  0  0
  2 22  1  0  0  0  0
  2 23  1  0  0  0  0
  3  4  1  0  0  0  0
  4 18  2  0  0  0  0
  4  5  1  0  0  0  0
  5  6  2  0  0  0  0
  5 24  1  0  0  0  0
  6  7  1  0  0  0  0
  6 25  1  0  0  0  0
  7 17  2  0  0  0  0
  7  8  1  0  0  0  0
  8  9  1  0  0  0  0
  8 13  2  0  0  0  0
  9 10  1  0  0  0  0
  9 11  1  0  0  0  0
  9 12  1  0  0  0  0
 13 14  1  0  0  0  0
 13 26  1  0  0  0  0
 14 15  2  0  0  0  0
 14 16  1  0  0  0  0
 16 17  1  0  0  0  0
 17 18  1  0  0  0  0
 18 27  1  0  0  0  0
M  END
$$$$
