ZINC000000003826      none
 OpenBabel11202420153D

 30 31  0  0  1  0  0  0  0  0999 V2000
   30.9268   39.1462   67.2079 O   0  0  0  0  0  0  0  0  0  0  0  0
   30.9955   38.0796   66.6346 C   0  0  0  0  0  0  0  0  0  0  0  0
   30.4431   36.7745   67.1636 C   0  0  0  0  0  0  0  0  0  0  0  0
   31.1370   35.6928   66.3037 C   0  0  0  0  0  0  0  0  0  0  0  0
   31.4774   36.4816   65.0197 C   0  0  1  0  0  0  0  0  0  0  0  0
   32.4291   36.1441   64.6094 H   0  0  0  0  0  0  0  0  0  0  0  0
   30.3814   36.3142   63.9990 C   0  0  0  0  0  0  0  0  0  0  0  0
   29.4297   35.6030   64.2421 O   0  0  0  0  0  0  0  0  0  0  0  0
   30.4589   36.9551   62.8158 N   0  0  0  0  0  0  0  0  0  0  0  0
   31.6026   37.8249   62.5091 C   0  0  0  0  0  0  0  0  0  0  0  0
   32.2156   37.3735   61.1747 C   0  0  0  0  0  0  0  0  0  0  0  0
   31.1280   37.3628   60.0980 C   0  0  0  0  0  0  0  0  0  0  0  0
   30.0332   36.3665   60.4863 C   0  0  0  0  0  0  0  0  0  0  0  0
   29.3983   36.8019   61.8106 C   0  0  0  0  0  0  0  0  0  0  0  0
   31.5732   37.8854   65.4365 N   0  0  0  0  0  0  0  0  0  0  0  0
   30.7011   36.6493   68.2152 H   0  0  0  0  0  0  0  0  0  0  0  0
   29.3620   36.7355   67.0298 H   0  0  0  0  0  0  0  0  0  0  0  0
   30.4555   34.8702   66.0870 H   0  0  0  0  0  0  0  0  0  0  0  0
   32.0425   35.3294   66.7898 H   0  0  0  0  0  0  0  0  0  0  0  0
   31.2647   38.8580   62.4282 H   0  0  0  0  0  0  0  0  0  0  0  0
   32.3470   37.7426   63.3011 H   0  0  0  0  0  0  0  0  0  0  0  0
   32.6305   36.3714   61.2825 H   0  0  0  0  0  0  0  0  0  0  0  0
   33.0066   38.0657   60.8858 H   0  0  0  0  0  0  0  0  0  0  0  0
   31.5647   37.0689   59.1436 H   0  0  0  0  0  0  0  0  0  0  0  0
   30.6964   38.3598   60.0082 H   0  0  0  0  0  0  0  0  0  0  0  0
   30.4687   35.3738   60.6006 H   0  0  0  0  0  0  0  0  0  0  0  0
   29.2705   36.3417   59.7080 H   0  0  0  0  0  0  0  0  0  0  0  0
   28.6877   36.0445   62.1417 H   0  0  0  0  0  0  0  0  0  0  0  0
   28.8826   37.7527   61.6759 H   0  0  0  0  0  0  0  0  0  0  0  0
   31.9986   38.5836   64.9144 H   0  0  0  0  0  0  0  0  0  0  0  0
  1  2  2  0  0  0  0
  2 15  1  0  0  0  0
  2  3  1  0  0  0  0
  3  4  1  0  0  0  0
  3 16  1  0  0  0  0
  3 17  1  0  0  0  0
  4  5  1  0  0  0  0
  4 18  1  0  0  0  0
  4 19  1  0  0  0  0
  5  6  1  6  0  0  0
  5  7  1  0  0  0  0
  5 15  1  0  0  0  0
  7  8  2  0  0  0  0
  7  9  1  0  0  0  0
  9 14  1  0  0  0  0
  9 10  1  0  0  0  0
 10 11  1  0  0  0  0
 10 20  1  0  0  0  0
 10 21  1  0  0  0  0
 11 12  1  0  0  0  0
 11 22  1  0  0  0  0
 11 23  1  0  0  0  0
 12 13  1  0  0  0  0
 12 24  1  0  0  0  0
 12 25  1  0  0  0  0
 13 14  1  0  0  0  0
 13 26  1  0  0  0  0
 13 27  1  0  0  0  0
 14 28  1  0  0  0  0
 14 29  1  0  0  0  0
 15 30  1  0  0  0  0
M  END
$$$$
