ZINC000000036278      none
 OpenBabel11202420153D

 41 43  0  0  0  0  0  0  0  0999 V2000
   28.1425   35.5439   63.0968 O   0  0  0  0  0  0  0  0  0  0  0  0
   29.0135   36.3925   63.0475 C   0  0  0  0  0  0  0  0  0  0  0  0
   29.5402   36.9260   61.8572 C   0  0  0  0  0  0  0  0  0  0  0  0
   30.4877   37.8444   62.1513 C   0  0  0  0  0  0  0  0  0  0  0  0
   31.2248   38.5778   61.2656 N   0  0  0  0  0  0  0  0  0  0  0  0
   31.5454   38.0268   59.9466 C   0  0  0  0  0  0  0  0  0  0  0  0
   32.7447   38.7738   59.3596 C   0  0  0  0  0  0  0  0  0  0  0  0
   33.0745   38.2069   58.0027 C   0  0  0  0  0  0  0  0  0  0  0  0
   33.6316   39.0180   57.0318 C   0  0  0  0  0  0  0  0  0  0  0  0
   33.9395   38.4972   55.7891 C   0  0  0  0  0  0  0  0  0  0  0  0
   33.6795   37.1667   55.5132 C   0  0  0  0  0  0  0  0  0  0  0  0
   34.0588   36.5137   53.9501 Cl  0  0  0  0  0  0  0  0  0  0  0  0
   33.1166   36.3567   56.4835 C   0  0  0  0  0  0  0  0  0  0  0  0
   32.8144   36.8772   57.7278 C   0  0  0  0  0  0  0  0  0  0  0  0
   30.5699   37.8896   63.6587 C   0  0  0  0  0  0  0  0  0  0  0  0
   30.2264   39.2900   64.1611 C   0  0  0  0  0  0  0  0  0  0  0  0
   30.2956   39.3167   65.6898 C   0  0  0  0  0  0  0  0  0  0  0  0
   31.7056   38.9319   66.1425 C   0  0  0  0  0  0  0  0  0  0  0  0
   32.0331   37.5213   65.6488 C   0  0  0  0  0  0  0  0  0  0  0  0
   31.9692   37.4890   64.1200 C   0  0  0  0  0  0  0  0  0  0  0  0
   29.6013   36.9469   64.1257 O   0  0  0  0  0  0  0  0  0  0  0  0
   29.2338   36.6452   60.8604 H   0  0  0  0  0  0  0  0  0  0  0  0
   31.5359   39.4635   61.5099 H   0  0  0  0  0  0  0  0  0  0  0  0
   30.6863   38.1426   59.2858 H   0  0  0  0  0  0  0  0  0  0  0  0
   31.7886   36.9687   60.0442 H   0  0  0  0  0  0  0  0  0  0  0  0
   33.6038   38.6578   60.0203 H   0  0  0  0  0  0  0  0  0  0  0  0
   32.5014   39.8318   59.2621 H   0  0  0  0  0  0  0  0  0  0  0  0
   33.8304   40.0578   57.2458 H   0  0  0  0  0  0  0  0  0  0  0  0
   34.3788   39.1299   55.0321 H   0  0  0  0  0  0  0  0  0  0  0  0
   32.9131   35.3181   56.2686 H   0  0  0  0  0  0  0  0  0  0  0  0
   32.3748   36.2452   58.4851 H   0  0  0  0  0  0  0  0  0  0  0  0
   30.9387   40.0070   63.7528 H   0  0  0  0  0  0  0  0  0  0  0  0
   29.2196   39.5548   63.8384 H   0  0  0  0  0  0  0  0  0  0  0  0
   29.5764   38.6070   66.0985 H   0  0  0  0  0  0  0  0  0  0  0  0
   30.0602   40.3193   66.0469 H   0  0  0  0  0  0  0  0  0  0  0  0
   31.7571   38.9569   67.2310 H   0  0  0  0  0  0  0  0  0  0  0  0
   32.4254   39.6380   65.7286 H   0  0  0  0  0  0  0  0  0  0  0  0
   31.3097   36.8161   66.0577 H   0  0  0  0  0  0  0  0  0  0  0  0
   33.0353   37.2451   65.9765 H   0  0  0  0  0  0  0  0  0  0  0  0
   32.1931   36.4818   63.7684 H   0  0  0  0  0  0  0  0  0  0  0  0
   32.7000   38.1868   63.7112 H   0  0  0  0  0  0  0  0  0  0  0  0
  1  2  2  0  0  0  0
  2 21  1  0  0  0  0
  2  3  1  0  0  0  0
  3  4  2  0  0  0  0
  3 22  1  0  0  0  0
  4  5  1  0  0  0  0
  4 15  1  0  0  0  0
  5  6  1  0  0  0  0
  5 23  1  0  0  0  0
  6  7  1  0  0  0  0
  6 24  1  0  0  0  0
  6 25  1  0  0  0  0
  7  8  1  0  0  0  0
  7 26  1  0  0  0  0
  7 27  1  0  0  0  0
  8 14  2  0  0  0  0
  8  9  1  0  0  0  0
  9 10  2  0  0  0  0
  9 28  1  0  0  0  0
 10 11  1  0  0  0  0
 10 29  1  0  0  0  0
 11 12  1  0  0  0  0
 11 13  2  0  0  0  0
 13 14  1  0  0  0  0
 13 30  1  0  0  0  0
 14 31  1  0  0  0  0
 15 20  1  0  0  0  0
 15 16  1  0  0  0  0
 15 21  1  0  0  0  0
 16 17  1  0  0  0  0
 16 32  1  0  0  0  0
 16 33  1  0  0  0  0
 17 18  1  0  0  0  0
 17 34  1  0  0  0  0
 17 35  1  0  0  0  0
 18 19  1  0  0  0  0
 18 36  1  0  0  0  0
 18 37  1  0  0  0  0
 19 20  1  0  0  0  0
 19 38  1  0  0  0  0
 19 39  1  0  0  0  0
 20 40  1  0  0  0  0
 20 41  1  0  0  0  0
M  END
$$$$
