ZINC000000045449      none
 OpenBabel11202420153D

 28 29  0  0  0  0  0  0  0  0999 V2000
   32.2208   37.0926   66.5999 C   0  0  0  0  0  0  0  0  0  0  0  0
   32.8799   37.2797   65.2318 C   0  0  0  0  0  0  0  0  0  0  0  0
   31.8654   37.2244   64.1945 O   0  0  0  0  0  0  0  0  0  0  0  0
   31.2856   38.3840   63.8466 C   0  0  0  0  0  0  0  0  0  0  0  0
   31.6149   39.4112   64.3910 O   0  0  0  0  0  0  0  0  0  0  0  0
   30.2242   38.4047   62.7771 C   0  0  0  0  0  0  0  0  0  0  0  0
   30.4767   37.3266   61.8177 N   0  0  0  0  0  0  0  0  0  0  0  0
   29.9924   36.0728   61.8961 C   0  0  0  0  0  0  0  0  0  0  0  0
   28.9776   35.4840   63.1428 S   0  0  0  0  0  0  0  0  0  0  0  0
   30.4278   35.3523   60.8454 N   0  0  0  0  0  0  0  0  0  0  0  0
   30.2203   34.4210   60.6706 H   0  0  0  0  0  0  0  0  0  0  0  0
   31.2272   36.1716   60.0526 C   0  0  0  0  0  0  0  0  0  0  0  0
   31.9245   35.9661   58.8718 C   0  0  0  0  0  0  0  0  0  0  0  0
   32.6467   37.0012   58.3108 C   0  0  0  0  0  0  0  0  0  0  0  0
   32.6770   38.2429   58.9221 C   0  0  0  0  0  0  0  0  0  0  0  0
   31.9857   38.4572   60.0984 C   0  0  0  0  0  0  0  0  0  0  0  0
   31.2533   37.4257   60.6663 C   0  0  0  0  0  0  0  0  0  0  0  0
   32.9823   37.1340   67.3787 H   0  0  0  0  0  0  0  0  0  0  0  0
   31.4907   37.8852   66.7630 H   0  0  0  0  0  0  0  0  0  0  0  0
   31.7201   36.1250   66.6327 H   0  0  0  0  0  0  0  0  0  0  0  0
   33.6099   36.4870   65.0687 H   0  0  0  0  0  0  0  0  0  0  0  0
   33.3805   38.2473   65.1991 H   0  0  0  0  0  0  0  0  0  0  0  0
   30.2481   39.3640   62.2601 H   0  0  0  0  0  0  0  0  0  0  0  0
   29.2450   38.2625   63.2341 H   0  0  0  0  0  0  0  0  0  0  0  0
   31.9032   34.9988   58.3920 H   0  0  0  0  0  0  0  0  0  0  0  0
   33.1897   36.8411   57.3911 H   0  0  0  0  0  0  0  0  0  0  0  0
   33.2440   39.0474   58.4774 H   0  0  0  0  0  0  0  0  0  0  0  0
   32.0120   39.4272   60.5725 H   0  0  0  0  0  0  0  0  0  0  0  0
  1  2  1  0  0  0  0
  1 18  1  0  0  0  0
  1 19  1  0  0  0  0
  1 20  1  0  0  0  0
  2  3  1  0  0  0  0
  2 21  1  0  0  0  0
  2 22  1  0  0  0  0
  3  4  1  0  0  0  0
  4  5  2  0  0  0  0
  4  6  1  0  0  0  0
  6  7  1  0  0  0  0
  6 23  1  0  0  0  0
  6 24  1  0  0  0  0
  7 17  1  0  0  0  0
  7  8  1  0  0  0  0
  8  9  2  0  0  0  0
  8 10  1  0  0  0  0
 10 11  1  0  0  0  0
 10 12  1  0  0  0  0
 12 17  2  0  0  0  0
 12 13  1  0  0  0  0
 13 14  2  0  0  0  0
 13 25  1  0  0  0  0
 14 15  1  0  0  0  0
 14 26  1  0  0  0  0
 15 16  2  0  0  0  0
 15 27  1  0  0  0  0
 16 17  1  0  0  0  0
 16 28  1  0  0  0  0
M  END
$$$$
