ZINC000000055255      none
 OpenBabel11202420153D

 34 35  0  0  0  0  0  0  0  0999 V2000
   27.8090   32.3625   64.4165 C   0  0  0  0  0  0  0  0  0  0  0  0
   29.1345   32.2755   63.8897 O   0  0  0  0  0  0  0  0  0  0  0  0
   29.8262   33.4397   63.7626 C   0  0  0  0  0  0  0  0  0  0  0  0
   31.1182   33.4267   63.2583 C   0  0  0  0  0  0  0  0  0  0  0  0
   31.8215   34.6081   63.1292 C   0  0  0  0  0  0  0  0  0  0  0  0
   31.2342   35.8099   63.5042 C   0  0  0  0  0  0  0  0  0  0  0  0
   32.1304   37.3181   63.3400 S   0  0  0  0  0  0  0  0  0  0  0  0
   31.0955   38.2863   62.2076 C   0  0  0  0  0  0  0  0  0  0  0  0
   31.5156   38.0139   60.7862 C   0  0  0  0  0  0  0  0  0  0  0  0
   30.9980   37.1110   60.1633 O   0  0  0  0  0  0  0  0  0  0  0  0
   32.4663   38.7737   60.2070 N   0  0  0  0  0  0  0  0  0  0  0  0
   32.8562   38.5208   58.8872 C   0  0  0  0  0  0  0  0  0  0  0  0
   33.3080   39.5597   58.0839 C   0  0  0  0  0  0  0  0  0  0  0  0
   33.6876   39.3077   56.7802 C   0  0  0  0  0  0  0  0  0  0  0  0
   33.6286   38.0207   56.2778 C   0  0  0  0  0  0  0  0  0  0  0  0
   33.1787   36.9841   57.0749 C   0  0  0  0  0  0  0  0  0  0  0  0
   32.7927   37.2305   58.3779 C   0  0  0  0  0  0  0  0  0  0  0  0
   29.9421   35.8211   64.0141 C   0  0  0  0  0  0  0  0  0  0  0  0
   29.2389   34.6390   64.1377 C   0  0  0  0  0  0  0  0  0  0  0  0
   27.2015   32.9949   63.7690 H   0  0  0  0  0  0  0  0  0  0  0  0
   27.3712   31.3655   64.4652 H   0  0  0  0  0  0  0  0  0  0  0  0
   27.8432   32.7935   65.4170 H   0  0  0  0  0  0  0  0  0  0  0  0
   31.5745   32.4923   62.9667 H   0  0  0  0  0  0  0  0  0  0  0  0
   32.8276   34.5977   62.7371 H   0  0  0  0  0  0  0  0  0  0  0  0
   31.2146   39.3478   62.4244 H   0  0  0  0  0  0  0  0  0  0  0  0
   30.0510   38.0036   62.3382 H   0  0  0  0  0  0  0  0  0  0  0  0
   32.8802   39.4958   60.7051 H   0  0  0  0  0  0  0  0  0  0  0  0
   33.3582   40.5644   58.4770 H   0  0  0  0  0  0  0  0  0  0  0  0
   34.0348   40.1159   56.1536 H   0  0  0  0  0  0  0  0  0  0  0  0
   33.9298   37.8255   55.2592 H   0  0  0  0  0  0  0  0  0  0  0  0
   33.1295   35.9808   56.6783 H   0  0  0  0  0  0  0  0  0  0  0  0
   32.4414   36.4205   58.9999 H   0  0  0  0  0  0  0  0  0  0  0  0
   29.4863   36.7543   64.3104 H   0  0  0  0  0  0  0  0  0  0  0  0
   28.2331   34.6480   64.5310 H   0  0  0  0  0  0  0  0  0  0  0  0
  1  2  1  0  0  0  0
  1 20  1  0  0  0  0
  1 21  1  0  0  0  0
  1 22  1  0  0  0  0
  2  3  1  0  0  0  0
  3 19  2  0  0  0  0
  3  4  1  0  0  0  0
  4  5  2  0  0  0  0
  4 23  1  0  0  0  0
  5  6  1  0  0  0  0
  5 24  1  0  0  0  0
  6  7  1  0  0  0  0
  6 18  2  0  0  0  0
  7  8  1  0  0  0  0
  8  9  1  0  0  0  0
  8 25  1  0  0  0  0
  8 26  1  0  0  0  0
  9 10  2  0  0  0  0
  9 11  1  0  0  0  0
 11 12  1  0  0  0  0
 11 27  1  0  0  0  0
 12 17  2  0  0  0  0
 12 13  1  0  0  0  0
 13 14  2  0  0  0  0
 13 28  1  0  0  0  0
 14 15  1  0  0  0  0
 14 29  1  0  0  0  0
 15 16  2  0  0  0  0
 15 30  1  0  0  0  0
 16 17  1  0  0  0  0
 16 31  1  0  0  0  0
 17 32  1  0  0  0  0
 18 19  1  0  0  0  0
 18 33  1  0  0  0  0
 19 34  1  0  0  0  0
M  END
$$$$
