ZINC000000031932      none
 OpenBabel11202420163D

 31 33  0  0  0  0  0  0  0  0999 V2000
   33.8910   38.2573   65.8477 F   0  0  0  0  0  0  0  0  0  0  0  0
   33.0995   37.4050   66.6251 C   0  0  0  0  0  0  0  0  0  0  0  0
   32.6188   38.1018   67.7387 F   0  0  0  0  0  0  0  0  0  0  0  0
   33.8671   36.3160   67.0520 F   0  0  0  0  0  0  0  0  0  0  0  0
   31.9379   36.9092   65.8028 C   0  0  0  0  0  0  0  0  0  0  0  0
   31.0875   36.1085   66.3398 N   0  0  0  0  0  0  0  0  0  0  0  0
   30.0301   35.5959   65.6395 C   0  0  0  0  0  0  0  0  0  0  0  0
   28.9778   34.9578   66.2915 C   0  0  0  0  0  0  0  0  0  0  0  0
   27.9317   34.4352   65.5579 C   0  0  0  0  0  0  0  0  0  0  0  0
   27.9139   34.5502   64.1783 C   0  0  0  0  0  0  0  0  0  0  0  0
   28.9537   35.1788   63.5169 C   0  0  0  0  0  0  0  0  0  0  0  0
   30.0113   35.6987   64.2400 C   0  0  0  0  0  0  0  0  0  0  0  0
   31.0857   36.3333   63.6069 N   0  0  0  0  0  0  0  0  0  0  0  0
   31.4616   36.0012   62.3025 C   0  0  0  0  0  0  0  0  0  0  0  0
   31.8598   34.7044   62.0017 C   0  0  0  0  0  0  0  0  0  0  0  0
   32.2252   34.3771   60.7109 C   0  0  0  0  0  0  0  0  0  0  0  0
   32.2060   35.3417   59.7189 C   0  0  0  0  0  0  0  0  0  0  0  0
   32.6725   34.9280   58.0987 Cl  0  0  0  0  0  0  0  0  0  0  0  0
   31.8157   36.6367   60.0165 C   0  0  0  0  0  0  0  0  0  0  0  0
   31.7933   37.8442   58.7694 Cl  0  0  0  0  0  0  0  0  0  0  0  0
   31.4434   36.9682   61.3058 C   0  0  0  0  0  0  0  0  0  0  0  0
   31.8035   37.3651   64.3730 C   0  0  0  0  0  0  0  0  0  0  0  0
   28.9825   34.8682   67.3677 H   0  0  0  0  0  0  0  0  0  0  0  0
   27.1186   33.9364   66.0644 H   0  0  0  0  0  0  0  0  0  0  0  0
   27.0866   34.1438   63.6156 H   0  0  0  0  0  0  0  0  0  0  0  0
   28.9394   35.2632   62.4403 H   0  0  0  0  0  0  0  0  0  0  0  0
   31.8793   33.9519   62.7761 H   0  0  0  0  0  0  0  0  0  0  0  0
   32.5304   33.3680   60.4761 H   0  0  0  0  0  0  0  0  0  0  0  0
   31.1383   37.9780   61.5376 H   0  0  0  0  0  0  0  0  0  0  0  0
   32.7939   37.5156   63.9433 H   0  0  0  0  0  0  0  0  0  0  0  0
   31.2448   38.3004   64.3376 H   0  0  0  0  0  0  0  0  0  0  0  0
  1  2  1  0  0  0  0
  2  3  1  0  0  0  0
  2  4  1  0  0  0  0
  2  5  1  0  0  0  0
  5 22  1  0  0  0  0
  5  6  2  0  0  0  0
  6  7  1  0  0  0  0
  7 12  2  0  0  0  0
  7  8  1  0  0  0  0
  8  9  2  0  0  0  0
  8 23  1  0  0  0  0
  9 10  1  0  0  0  0
  9 24  1  0  0  0  0
 10 11  2  0  0  0  0
 10 25  1  0  0  0  0
 11 12  1  0  0  0  0
 11 26  1  0  0  0  0
 12 13  1  0  0  0  0
 13 14  1  0  0  0  0
 13 22  1  0  0  0  0
 14 21  2  0  0  0  0
 14 15  1  0  0  0  0
 15 16  2  0  0  0  0
 15 27  1  0  0  0  0
 16 17  1  0  0  0  0
 16 28  1  0  0  0  0
 17 18  1  0  0  0  0
 17 19  2  0  0  0  0
 19 20  1  0  0  0  0
 19 21  1  0  0  0  0
 21 29  1  0  0  0  0
 22 30  1  0  0  0  0
 22 31  1  0  0  0  0
M  END
$$$$
