ZINC000000028573      none
 OpenBabel11202420163D

 38 40  0  0  0  0  0  0  0  0999 V2000
   31.5612   38.6075   57.9266 C   0  0  0  0  0  0  0  0  0  0  0  0
   32.4894   37.4354   57.7376 C   0  0  0  0  0  0  0  0  0  0  0  0
   32.6501   36.5725   58.6961 N   0  0  0  0  0  0  0  0  0  0  0  0
   31.9032   36.6887   59.8757 N   0  0  0  0  0  0  0  0  0  0  0  0
   31.9998   37.8929   60.7147 C   0  0  0  0  0  0  0  0  0  0  0  0
   32.2779   37.4595   62.1581 C   0  0  0  0  0  0  0  0  0  0  0  0
   31.2588   36.4889   62.5795 N   0  0  0  0  0  0  0  0  0  0  0  0
   31.3802   36.1950   63.9326 C   0  0  0  0  0  0  0  0  0  0  0  0
   30.5020   35.2920   64.5235 C   0  0  0  0  0  0  0  0  0  0  0  0
   30.6342   35.0088   65.8708 C   0  0  0  0  0  0  0  0  0  0  0  0
   31.6441   35.6404   66.5848 C   0  0  0  0  0  0  0  0  0  0  0  0
   32.4801   36.5255   65.9346 C   0  0  0  0  0  0  0  0  0  0  0  0
   32.3340   36.7726   64.6464 N   0  0  0  0  0  0  0  0  0  0  0  0
   31.3195   35.2662   61.7676 C   0  0  0  0  0  0  0  0  0  0  0  0
   31.0022   35.6096   60.3082 C   0  0  0  0  0  0  0  0  0  0  0  0
   33.2121   37.2684   56.4709 C   0  0  0  0  0  0  0  0  0  0  0  0
   33.6157   38.2816   55.6544 C   0  0  0  0  0  0  0  0  0  0  0  0
   34.2784   37.8679   54.5185 C   0  0  0  0  0  0  0  0  0  0  0  0
   34.4221   36.5456   54.3935 C   0  0  0  0  0  0  0  0  0  0  0  0
   33.6994   35.7293   55.7729 S   0  0  0  0  0  0  0  0  0  0  0  0
   32.1315   39.4711   58.2689 H   0  0  0  0  0  0  0  0  0  0  0  0
   31.0770   38.8442   56.9792 H   0  0  0  0  0  0  0  0  0  0  0  0
   30.8037   38.3551   58.6687 H   0  0  0  0  0  0  0  0  0  0  0  0
   31.0607   38.4448   60.6726 H   0  0  0  0  0  0  0  0  0  0  0  0
   32.8145   38.5232   60.3583 H   0  0  0  0  0  0  0  0  0  0  0  0
   32.2432   38.3305   62.8124 H   0  0  0  0  0  0  0  0  0  0  0  0
   33.2643   36.9997   62.2166 H   0  0  0  0  0  0  0  0  0  0  0  0
   29.7273   34.8190   63.9383 H   0  0  0  0  0  0  0  0  0  0  0  0
   29.9673   34.3118   66.3565 H   0  0  0  0  0  0  0  0  0  0  0  0
   31.7743   35.4408   67.6381 H   0  0  0  0  0  0  0  0  0  0  0  0
   33.2667   37.0188   66.4861 H   0  0  0  0  0  0  0  0  0  0  0  0
   32.3194   34.8368   61.8310 H   0  0  0  0  0  0  0  0  0  0  0  0
   30.5900   34.5465   62.1389 H   0  0  0  0  0  0  0  0  0  0  0  0
   29.9674   35.9421   60.2271 H   0  0  0  0  0  0  0  0  0  0  0  0
   31.1575   34.7304   59.6831 H   0  0  0  0  0  0  0  0  0  0  0  0
   33.4316   39.3219   55.8783 H   0  0  0  0  0  0  0  0  0  0  0  0
   34.6547   38.5631   53.7825 H   0  0  0  0  0  0  0  0  0  0  0  0
   34.9145   36.0510   53.5692 H   0  0  0  0  0  0  0  0  0  0  0  0
  1  2  1  0  0  0  0
  1 21  1  0  0  0  0
  1 22  1  0  0  0  0
  1 23  1  0  0  0  0
  2  3  2  0  0  0  0
  2 16  1  0  0  0  0
  3  4  1  0  0  0  0
  4 15  1  0  0  0  0
  4  5  1  0  0  0  0
  5  6  1  0  0  0  0
  5 24  1  0  0  0  0
  5 25  1  0  0  0  0
  6  7  1  0  0  0  0
  6 26  1  0  0  0  0
  6 27  1  0  0  0  0
  7  8  1  0  0  0  0
  7 14  1  0  0  0  0
  8 13  2  0  0  0  0
  8  9  1  0  0  0  0
  9 10  2  0  0  0  0
  9 28  1  0  0  0  0
 10 11  1  0  0  0  0
 10 29  1  0  0  0  0
 11 12  2  0  0  0  0
 11 30  1  0  0  0  0
 12 13  1  0  0  0  0
 12 31  1  0  0  0  0
 14 15  1  0  0  0  0
 14 32  1  0  0  0  0
 14 33  1  0  0  0  0
 15 34  1  0  0  0  0
 15 35  1  0  0  0  0
 16 20  1  0  0  0  0
 16 17  2  0  0  0  0
 17 18  1  0  0  0  0
 17 36  1  0  0  0  0
 18 19  2  0  0  0  0
 18 37  1  0  0  0  0
 19 20  1  0  0  0  0
 19 38  1  0  0  0  0
M  END
$$$$
