ZINC000000054808      none
 OpenBabel11202420153D

 41 43  0  0  0  0  0  0  0  0999 V2000
   31.3661   38.8611   62.7707 O   0  0  0  0  0  0  0  0  0  0  0  0
   31.3435   37.6596   62.5966 C   0  0  0  0  0  0  0  0  0  0  0  0
   31.7139   37.1439   61.4078 N   0  0  0  0  0  0  0  0  0  0  0  0
   32.0923   37.9267   60.4549 N   0  0  0  0  0  0  0  0  0  0  0  0
   32.4678   37.4038   59.2495 C   0  0  0  0  0  0  0  0  0  0  0  0
   32.8805   38.2465   58.2083 C   0  0  0  0  0  0  0  0  0  0  0  0
   33.2534   37.6691   57.0009 C   0  0  0  0  0  0  0  0  0  0  0  0
   33.2053   36.3361   56.8769 N   0  0  0  0  0  0  0  0  0  0  0  0
   33.4632   35.9226   56.0382 H   0  0  0  0  0  0  0  0  0  0  0  0
   32.8047   35.5689   57.8977 C   0  0  0  0  0  0  0  0  0  0  0  0
   32.7640   34.0732   57.7180 C   0  0  0  0  0  0  0  0  0  0  0  0
   33.2157   33.7223   56.3238 C   0  0  0  0  0  0  0  0  0  0  0  0
   32.2924   33.6392   55.2984 C   0  0  0  0  0  0  0  0  0  0  0  0
   32.7062   33.3121   54.0206 C   0  0  0  0  0  0  0  0  0  0  0  0
   34.0446   33.0783   53.7661 C   0  0  0  0  0  0  0  0  0  0  0  0
   34.9680   33.1621   54.7914 C   0  0  0  0  0  0  0  0  0  0  0  0
   34.5536   33.4844   56.0702 C   0  0  0  0  0  0  0  0  0  0  0  0
   32.4418   36.0828   59.0476 N   0  0  0  0  0  0  0  0  0  0  0  0
   30.9105   36.7639   63.6869 C   0  0  0  0  0  0  0  0  0  0  0  0
   30.3456   35.5202   63.3913 C   0  0  0  0  0  0  0  0  0  0  0  0
   29.9488   34.6862   64.4151 C   0  0  0  0  0  0  0  0  0  0  0  0
   30.0977   35.0832   65.7328 C   0  0  0  0  0  0  0  0  0  0  0  0
   30.6513   36.3154   66.0330 C   0  0  0  0  0  0  0  0  0  0  0  0
   30.8064   36.7309   67.4450 N   0  0  0  0  0  0  0  0  0  0  0  0
   30.4182   35.9282   68.4143 O   0  0  0  0  0  0  0  0  0  0  0  0
   31.3328   37.9036   67.7324 O   0  0  0  0  0  0  0  0  0  0  0  0
   31.0581   37.1576   65.0193 C   0  0  0  0  0  0  0  0  0  0  0  0
   31.6958   36.1841   61.2687 H   0  0  0  0  0  0  0  0  0  0  0  0
   32.9081   39.3179   58.3414 H   0  0  0  0  0  0  0  0  0  0  0  0
   33.5774   38.2853   56.1752 H   0  0  0  0  0  0  0  0  0  0  0  0
   31.7455   33.7164   57.8705 H   0  0  0  0  0  0  0  0  0  0  0  0
   33.4265   33.6020   58.4439 H   0  0  0  0  0  0  0  0  0  0  0  0
   31.2472   33.8251   55.4965 H   0  0  0  0  0  0  0  0  0  0  0  0
   31.9841   33.2427   53.2203 H   0  0  0  0  0  0  0  0  0  0  0  0
   34.3684   32.8270   52.7669 H   0  0  0  0  0  0  0  0  0  0  0  0
   36.0133   32.9761   54.5933 H   0  0  0  0  0  0  0  0  0  0  0  0
   35.2750   33.5496   56.8712 H   0  0  0  0  0  0  0  0  0  0  0  0
   30.2241   35.2114   62.3636 H   0  0  0  0  0  0  0  0  0  0  0  0
   29.5157   33.7232   64.1884 H   0  0  0  0  0  0  0  0  0  0  0  0
   29.7805   34.4276   66.5304 H   0  0  0  0  0  0  0  0  0  0  0  0
   31.4902   38.1191   65.2549 H   0  0  0  0  0  0  0  0  0  0  0  0
  1  2  2  0  0  0  0
  2  3  1  0  0  0  0
  2 19  1  0  0  0  0
  3  4  1  0  0  0  0
  3 28  1  0  0  0  0
  4  5  2  0  0  0  0
  5 18  1  0  0  0  0
  5  6  1  0  0  0  0
  6  7  2  0  0  0  0
  6 29  1  0  0  0  0
  7  8  1  0  0  0  0
  7 30  1  0  0  0  0
  8  9  1  0  0  0  0
  8 10  1  0  0  0  0
 10 11  1  0  0  0  0
 10 18  2  0  0  0  0
 11 12  1  0  0  0  0
 11 31  1  0  0  0  0
 11 32  1  0  0  0  0
 12 17  2  0  0  0  0
 12 13  1  0  0  0  0
 13 14  2  0  0  0  0
 13 33  1  0  0  0  0
 14 15  1  0  0  0  0
 14 34  1  0  0  0  0
 15 16  2  0  0  0  0
 15 35  1  0  0  0  0
 16 17  1  0  0  0  0
 16 36  1  0  0  0  0
 17 37  1  0  0  0  0
 19 27  2  0  0  0  0
 19 20  1  0  0  0  0
 20 21  2  0  0  0  0
 20 38  1  0  0  0  0
 21 22  1  0  0  0  0
 21 39  1  0  0  0  0
 22 23  2  0  0  0  0
 22 40  1  0  0  0  0
 23 24  1  0  0  0  0
 23 27  1  0  0  0  0
 24 25  2  0  0  0  0
 24 26  2  0  0  0  0
 27 41  1  0  0  0  0
M  END
$$$$
