ZINC000000004724      none
 OpenBabel11202420153D

 31 33  0  0  0  0  0  0  0  0999 V2000
   29.3052   39.2461   65.1591 N   0  0  0  0  0  0  0  0  0  0  0  0
   29.3697   38.4707   64.0586 C   0  0  0  0  0  0  0  0  0  0  0  0
   28.4775   38.5107   63.2338 O   0  0  0  0  0  0  0  0  0  0  0  0
   30.4233   37.6511   63.8725 N   0  0  0  0  0  0  0  0  0  0  0  0
   30.4392   36.8724   62.7187 C   0  0  0  0  0  0  0  0  0  0  0  0
   30.1287   37.5528   61.5331 C   0  0  0  0  0  0  0  0  0  0  0  0
   30.1076   36.8986   60.3237 C   0  0  0  0  0  0  0  0  0  0  0  0
   30.3975   35.5467   60.2780 C   0  0  0  0  0  0  0  0  0  0  0  0
   30.7033   34.8751   61.4389 C   0  0  0  0  0  0  0  0  0  0  0  0
   30.7284   35.5280   62.6741 C   0  0  0  0  0  0  0  0  0  0  0  0
   31.0825   34.6440   63.8422 C   0  0  0  0  0  0  0  0  0  0  0  0
   30.8399   35.2748   65.1739 C   0  0  0  0  0  0  0  0  0  0  0  0
   30.0214   34.7919   65.9278 O   0  0  0  0  0  0  0  0  0  0  0  0
   31.5816   36.4704   65.5773 C   0  0  0  0  0  0  0  0  0  0  0  0
   32.4580   36.4524   66.6668 C   0  0  0  0  0  0  0  0  0  0  0  0
   33.1805   37.5873   66.9690 C   0  0  0  0  0  0  0  0  0  0  0  0
   33.0474   38.7335   66.1998 C   0  0  0  0  0  0  0  0  0  0  0  0
   32.1660   38.7681   65.1351 C   0  0  0  0  0  0  0  0  0  0  0  0
   31.4101   37.6449   64.8416 C   0  0  0  0  0  0  0  0  0  0  0  0
   30.0172   39.2142   65.8172 H   0  0  0  0  0  0  0  0  0  0  0  0
   28.5470   39.8359   65.2930 H   0  0  0  0  0  0  0  0  0  0  0  0
   29.9030   38.6084   61.5699 H   0  0  0  0  0  0  0  0  0  0  0  0
   29.8673   37.4352   59.4179 H   0  0  0  0  0  0  0  0  0  0  0  0
   30.3882   35.0218   59.3343 H   0  0  0  0  0  0  0  0  0  0  0  0
   30.9293   33.8200   61.3946 H   0  0  0  0  0  0  0  0  0  0  0  0
   30.4924   33.7299   63.7778 H   0  0  0  0  0  0  0  0  0  0  0  0
   32.1373   34.3789   63.7702 H   0  0  0  0  0  0  0  0  0  0  0  0
   32.5675   35.5599   67.2650 H   0  0  0  0  0  0  0  0  0  0  0  0
   33.8555   37.5836   67.8120 H   0  0  0  0  0  0  0  0  0  0  0  0
   33.6374   39.6070   66.4348 H   0  0  0  0  0  0  0  0  0  0  0  0
   32.0679   39.6625   64.5377 H   0  0  0  0  0  0  0  0  0  0  0  0
  1  2  1  0  0  0  0
  1 20  1  0  0  0  0
  1 21  1  0  0  0  0
  2  3  2  0  0  0  0
  2  4  1  0  0  0  0
  4 19  1  0  0  0  0
  4  5  1  0  0  0  0
  5 10  2  0  0  0  0
  5  6  1  0  0  0  0
  6  7  2  0  0  0  0
  6 22  1  0  0  0  0
  7  8  1  0  0  0  0
  7 23  1  0  0  0  0
  8  9  2  0  0  0  0
  8 24  1  0  0  0  0
  9 10  1  0  0  0  0
  9 25  1  0  0  0  0
 10 11  1  0  0  0  0
 11 12  1  0  0  0  0
 11 26  1  0  0  0  0
 11 27  1  0  0  0  0
 12 13  2  0  0  0  0
 12 14  1  0  0  0  0
 14 19  2  0  0  0  0
 14 15  1  0  0  0  0
 15 16  2  0  0  0  0
 15 28  1  0  0  0  0
 16 17  1  0  0  0  0
 16 29  1  0  0  0  0
 17 18  2  0  0  0  0
 17 30  1  0  0  0  0
 18 19  1  0  0  0  0
 18 31  1  0  0  0  0
M  END
$$$$
