ZINC000000029787      none
 OpenBabel11202420163D

 33 33  0  0  0  0  0  0  0  0999 V2000
   34.6434   40.8233   59.1100 C   0  0  0  0  0  0  0  0  0  0  0  0
   33.3992   40.4824   58.4953 O   0  0  0  0  0  0  0  0  0  0  0  0
   33.2767   39.2181   58.0092 C   0  0  0  0  0  0  0  0  0  0  0  0
   32.7849   38.2082   58.8217 C   0  0  0  0  0  0  0  0  0  0  0  0
   32.6598   36.9195   58.3251 C   0  0  0  0  0  0  0  0  0  0  0  0
   32.1624   35.8968   59.1444 N   0  0  0  0  0  0  0  0  0  0  0  0
   31.2787   36.1848   60.1204 C   0  0  0  0  0  0  0  0  0  0  0  0
   30.9139   37.3292   60.2897 O   0  0  0  0  0  0  0  0  0  0  0  0
   30.7440   35.0853   61.0012 C   0  0  0  0  0  0  0  0  0  0  0  0
   31.9038   34.4136   61.7393 C   0  0  0  0  0  0  0  0  0  0  0  0
   29.7665   35.6769   62.0188 C   0  0  0  0  0  0  0  0  0  0  0  0
   33.0286   36.6430   57.0106 C   0  0  0  0  0  0  0  0  0  0  0  0
   32.9074   35.3794   56.5210 O   0  0  0  0  0  0  0  0  0  0  0  0
   33.3045   35.1684   55.1646 C   0  0  0  0  0  0  0  0  0  0  0  0
   33.5194   37.6550   56.2027 C   0  0  0  0  0  0  0  0  0  0  0  0
   33.6386   38.9412   56.6984 C   0  0  0  0  0  0  0  0  0  0  0  0
   34.2479   40.2091   55.6812 Cl  0  0  0  0  0  0  0  0  0  0  0  0
   35.4500   40.7085   58.3858 H   0  0  0  0  0  0  0  0  0  0  0  0
   34.8215   40.1643   59.9597 H   0  0  0  0  0  0  0  0  0  0  0  0
   34.6079   41.8572   59.4532 H   0  0  0  0  0  0  0  0  0  0  0  0
   32.4997   38.4249   59.8406 H   0  0  0  0  0  0  0  0  0  0  0  0
   32.4542   34.9817   59.0089 H   0  0  0  0  0  0  0  0  0  0  0  0
   30.2274   34.3472   60.3879 H   0  0  0  0  0  0  0  0  0  0  0  0
   31.5169   33.6182   62.3764 H   0  0  0  0  0  0  0  0  0  0  0  0
   32.6002   33.9921   61.0143 H   0  0  0  0  0  0  0  0  0  0  0  0
   32.4204   35.1518   62.3527 H   0  0  0  0  0  0  0  0  0  0  0  0
   28.9401   36.1554   61.4930 H   0  0  0  0  0  0  0  0  0  0  0  0
   29.3797   34.8816   62.6558 H   0  0  0  0  0  0  0  0  0  0  0  0
   30.2830   36.4152   62.6321 H   0  0  0  0  0  0  0  0  0  0  0  0
   34.3571   35.4273   55.0497 H   0  0  0  0  0  0  0  0  0  0  0  0
   33.1572   34.1209   54.9017 H   0  0  0  0  0  0  0  0  0  0  0  0
   32.7022   35.7960   54.5078 H   0  0  0  0  0  0  0  0  0  0  0  0
   33.8060   37.4410   55.1836 H   0  0  0  0  0  0  0  0  0  0  0  0
  1  2  1  0  0  0  0
  1 18  1  0  0  0  0
  1 19  1  0  0  0  0
  1 20  1  0  0  0  0
  2  3  1  0  0  0  0
  3 16  2  0  0  0  0
  3  4  1  0  0  0  0
  4  5  2  0  0  0  0
  4 21  1  0  0  0  0
  5  6  1  0  0  0  0
  5 12  1  0  0  0  0
  6  7  1  0  0  0  0
  6 22  1  0  0  0  0
  7  8  2  0  0  0  0
  7  9  1  0  0  0  0
  9 10  1  0  0  0  0
  9 11  1  0  0  0  0
  9 23  1  0  0  0  0
 10 24  1  0  0  0  0
 10 25  1  0  0  0  0
 10 26  1  0  0  0  0
 11 27  1  0  0  0  0
 11 28  1  0  0  0  0
 11 29  1  0  0  0  0
 12 13  1  0  0  0  0
 12 15  2  0  0  0  0
 13 14  1  0  0  0  0
 14 30  1  0  0  0  0
 14 31  1  0  0  0  0
 14 32  1  0  0  0  0
 15 16  1  0  0  0  0
 15 33  1  0  0  0  0
 16 17  1  0  0  0  0
M  END
$$$$
