ZINC000000002754      none
 OpenBabel11202420153D

 16 17  0  0  0  0  0  0  0  0999 V2000
   33.2549   40.8401   59.1515 N   0  0  0  0  0  0  0  0  0  0  0  0
   33.1759   39.5539   58.6418 C   0  0  0  0  0  0  0  0  0  0  0  0
   33.5332   39.3107   57.3969 N   0  0  0  0  0  0  0  0  0  0  0  0
   33.4650   38.0774   56.8836 C   0  0  0  0  0  0  0  0  0  0  0  0
   33.9916   37.7900   55.0902 Br  0  0  0  0  0  0  0  0  0  0  0  0
   33.0278   37.0351   57.6190 C   0  0  0  0  0  0  0  0  0  0  0  0
   32.6435   37.2302   58.9205 N   0  0  0  0  0  0  0  0  0  0  0  0
   32.1711   36.4057   59.8939 C   0  0  0  0  0  0  0  0  0  0  0  0
   31.9594   37.1673   60.9939 C   0  0  0  0  0  0  0  0  0  0  0  0
   32.2916   38.4266   60.7082 N   0  0  0  0  0  0  0  0  0  0  0  0
   32.7098   38.4910   59.4560 C   0  0  0  0  0  0  0  0  0  0  0  0
   32.9907   41.0156   60.0681 H   0  0  0  0  0  0  0  0  0  0  0  0
   33.5743   41.5649   58.5916 H   0  0  0  0  0  0  0  0  0  0  0  0
   32.9805   36.0480   57.1833 H   0  0  0  0  0  0  0  0  0  0  0  0
   31.9974   35.3433   59.8061 H   0  0  0  0  0  0  0  0  0  0  0  0
   31.5848   36.8137   61.9432 H   0  0  0  0  0  0  0  0  0  0  0  0
  1  2  1  0  0  0  0
  1 12  1  0  0  0  0
  1 13  1  0  0  0  0
  2 11  1  0  0  0  0
  2  3  2  0  0  0  0
  3  4  1  0  0  0  0
  4  5  1  0  0  0  0
  4  6  2  0  0  0  0
  6  7  1  0  0  0  0
  6 14  1  0  0  0  0
  7 11  1  0  0  0  0
  7  8  1  0  0  0  0
  8  9  2  0  0  0  0
  8 15  1  0  0  0  0
  9 10  1  0  0  0  0
  9 16  1  0  0  0  0
 10 11  2  0  0  0  0
M  END
$$$$
