ZINC000000045410      none
 OpenBabel11202420153D

 37 39  0  0  0  0  0  0  0  0999 V2000
   33.5709   37.1651   56.4996 C   0  0  0  0  0  0  0  0  0  0  0  0
   32.9422   37.3847   57.8514 C   0  0  0  0  0  0  0  0  0  0  0  0
   32.3610   36.3244   58.5224 C   0  0  0  0  0  0  0  0  0  0  0  0
   31.7843   36.5223   59.7617 C   0  0  0  0  0  0  0  0  0  0  0  0
   31.7887   37.7876   60.3338 C   0  0  0  0  0  0  0  0  0  0  0  0
   31.2048   37.9914   61.5893 N   0  0  0  0  0  0  0  0  0  0  0  0
   31.6652   37.3202   62.6635 C   0  0  0  0  0  0  0  0  0  0  0  0
   32.5843   36.5337   62.5410 O   0  0  0  0  0  0  0  0  0  0  0  0
   31.1067   37.5207   63.8736 N   0  0  0  0  0  0  0  0  0  0  0  0
   31.6070   36.7910   65.0413 C   0  0  0  0  0  0  0  0  0  0  0  0
   33.0850   37.1076   65.2784 C   0  0  0  0  0  0  0  0  0  0  0  0
   33.2381   38.4803   65.5007 F   0  0  0  0  0  0  0  0  0  0  0  0
   33.5398   36.4004   66.3966 F   0  0  0  0  0  0  0  0  0  0  0  0
   33.8286   36.7314   64.1546 F   0  0  0  0  0  0  0  0  0  0  0  0
   31.4103   35.3744   64.8751 O   0  0  0  0  0  0  0  0  0  0  0  0
   30.1921   35.1080   65.4303 C   0  0  0  0  0  0  0  0  0  0  0  0
   29.3413   34.0221   65.3014 C   0  0  0  0  0  0  0  0  0  0  0  0
   28.1408   33.9986   65.9863 C   0  0  0  0  0  0  0  0  0  0  0  0
   27.7854   35.0577   66.8007 C   0  0  0  0  0  0  0  0  0  0  0  0
   28.6288   36.1448   66.9335 C   0  0  0  0  0  0  0  0  0  0  0  0
   29.8338   36.1750   66.2505 C   0  0  0  0  0  0  0  0  0  0  0  0
   30.8277   37.1098   66.2093 O   0  0  0  0  0  0  0  0  0  0  0  0
   32.3685   38.8513   59.6551 C   0  0  0  0  0  0  0  0  0  0  0  0
   32.9482   38.6459   58.4185 C   0  0  0  0  0  0  0  0  0  0  0  0
   32.8231   37.3193   55.7217 H   0  0  0  0  0  0  0  0  0  0  0  0
   34.3901   37.8707   56.3609 H   0  0  0  0  0  0  0  0  0  0  0  0
   33.9543   36.1466   56.4382 H   0  0  0  0  0  0  0  0  0  0  0  0
   32.3576   35.3407   58.0766 H   0  0  0  0  0  0  0  0  0  0  0  0
   31.3302   35.6938   60.2851 H   0  0  0  0  0  0  0  0  0  0  0  0
   30.4716   38.6189   61.6870 H   0  0  0  0  0  0  0  0  0  0  0  0
   30.3734   38.1481   63.9714 H   0  0  0  0  0  0  0  0  0  0  0  0
   29.6165   33.1934   64.6656 H   0  0  0  0  0  0  0  0  0  0  0  0
   27.4793   33.1510   65.8850 H   0  0  0  0  0  0  0  0  0  0  0  0
   26.8466   35.0356   67.3342 H   0  0  0  0  0  0  0  0  0  0  0  0
   28.3484   36.9708   67.5702 H   0  0  0  0  0  0  0  0  0  0  0  0
   32.3696   39.8375   60.0955 H   0  0  0  0  0  0  0  0  0  0  0  0
   33.4029   39.4718   57.8919 H   0  0  0  0  0  0  0  0  0  0  0  0
  1  2  1  0  0  0  0
  1 25  1  0  0  0  0
  1 26  1  0  0  0  0
  1 27  1  0  0  0  0
  2 24  2  0  0  0  0
  2  3  1  0  0  0  0
  3  4  2  0  0  0  0
  3 28  1  0  0  0  0
  4  5  1  0  0  0  0
  4 29  1  0  0  0  0
  5  6  1  0  0  0  0
  5 23  2  0  0  0  0
  6  7  1  0  0  0  0
  6 30  1  0  0  0  0
  7  8  2  0  0  0  0
  7  9  1  0  0  0  0
  9 10  1  0  0  0  0
  9 31  1  0  0  0  0
 10 22  1  0  0  0  0
 10 11  1  0  0  0  0
 10 15  1  0  0  0  0
 11 12  1  0  0  0  0
 11 13  1  0  0  0  0
 11 14  1  0  0  0  0
 15 16  1  0  0  0  0
 16 21  2  0  0  0  0
 16 17  1  0  0  0  0
 17 18  2  0  0  0  0
 17 32  1  0  0  0  0
 18 19  1  0  0  0  0
 18 33  1  0  0  0  0
 19 20  2  0  0  0  0
 19 34  1  0  0  0  0
 20 21  1  0  0  0  0
 20 35  1  0  0  0  0
 21 22  1  0  0  0  0
 23 24  1  0  0  0  0
 23 36  1  0  0  0  0
 24 37  1  0  0  0  0
M  END
$$$$
