ZINC000000042618      none
 OpenBabel11202420153D

 37 39  0  0  0  0  0  0  0  0999 V2000
   32.8059   36.6992   60.8508 O   0  0  0  0  0  0  0  0  0  0  0  0
   32.3281   37.7758   61.1516 C   0  0  0  0  0  0  0  0  0  0  0  0
   32.1841   38.7345   60.2152 N   0  0  0  0  0  0  0  0  0  0  0  0
   32.5841   38.4905   58.8976 C   0  0  0  0  0  0  0  0  0  0  0  0
   33.0315   39.5380   58.1013 C   0  0  0  0  0  0  0  0  0  0  0  0
   33.4262   39.2979   56.7996 C   0  0  0  0  0  0  0  0  0  0  0  0
   33.3830   38.0155   56.2866 C   0  0  0  0  0  0  0  0  0  0  0  0
   32.9314   36.9652   57.0755 C   0  0  0  0  0  0  0  0  0  0  0  0
   32.8825   35.6679   56.5534 N   0  0  0  0  0  0  0  0  0  0  0  0
   32.6600   35.3530   55.1373 C   0  0  0  0  0  0  0  0  0  0  0  0
   32.2543   33.8628   55.1053 C   0  0  0  0  0  0  0  0  0  0  0  0
   32.9118   33.3291   56.3992 C   0  0  0  0  0  0  0  0  0  0  0  0
   33.0328   34.5500   57.2844 C   0  0  0  0  0  0  0  0  0  0  0  0
   33.2363   34.5238   58.4798 O   0  0  0  0  0  0  0  0  0  0  0  0
   32.5341   37.2029   58.3837 C   0  0  0  0  0  0  0  0  0  0  0  0
   31.9051   38.0336   62.5444 C   0  0  0  0  0  0  0  0  0  0  0  0
   30.8933   38.9579   62.8100 C   0  0  0  0  0  0  0  0  0  0  0  0
   30.5000   39.1902   64.1117 C   0  0  0  0  0  0  0  0  0  0  0  0
   31.1131   38.5168   65.1535 C   0  0  0  0  0  0  0  0  0  0  0  0
   32.1204   37.6035   64.8975 C   0  0  0  0  0  0  0  0  0  0  0  0
   32.5196   37.3580   63.6000 C   0  0  0  0  0  0  0  0  0  0  0  0
   31.8028   39.5934   60.4552 H   0  0  0  0  0  0  0  0  0  0  0  0
   33.0703   40.5407   58.5006 H   0  0  0  0  0  0  0  0  0  0  0  0
   33.7739   40.1135   56.1829 H   0  0  0  0  0  0  0  0  0  0  0  0
   33.6969   37.8303   55.2700 H   0  0  0  0  0  0  0  0  0  0  0  0
   33.5769   35.5067   54.5682 H   0  0  0  0  0  0  0  0  0  0  0  0
   31.8574   35.9711   54.7350 H   0  0  0  0  0  0  0  0  0  0  0  0
   32.6643   33.3658   54.2260 H   0  0  0  0  0  0  0  0  0  0  0  0
   31.1707   33.7525   55.1443 H   0  0  0  0  0  0  0  0  0  0  0  0
   32.2757   32.5789   56.8689 H   0  0  0  0  0  0  0  0  0  0  0  0
   33.8967   32.9149   56.1839 H   0  0  0  0  0  0  0  0  0  0  0  0
   32.1864   36.3872   59.0002 H   0  0  0  0  0  0  0  0  0  0  0  0
   30.4167   39.4869   61.9980 H   0  0  0  0  0  0  0  0  0  0  0  0
   29.7146   39.9019   64.3184 H   0  0  0  0  0  0  0  0  0  0  0  0
   30.8040   38.7051   66.1711 H   0  0  0  0  0  0  0  0  0  0  0  0
   32.5950   37.0815   65.7152 H   0  0  0  0  0  0  0  0  0  0  0  0
   33.3060   36.6448   63.4015 H   0  0  0  0  0  0  0  0  0  0  0  0
  1  2  2  0  0  0  0
  2  3  1  0  0  0  0
  2 16  1  0  0  0  0
  3  4  1  0  0  0  0
  3 22  1  0  0  0  0
  4 15  2  0  0  0  0
  4  5  1  0  0  0  0
  5  6  2  0  0  0  0
  5 23  1  0  0  0  0
  6  7  1  0  0  0  0
  6 24  1  0  0  0  0
  7  8  2  0  0  0  0
  7 25  1  0  0  0  0
  8  9  1  0  0  0  0
  8 15  1  0  0  0  0
  9 13  1  0  0  0  0
  9 10  1  0  0  0  0
 10 11  1  0  0  0  0
 10 26  1  0  0  0  0
 10 27  1  0  0  0  0
 11 12  1  0  0  0  0
 11 28  1  0  0  0  0
 11 29  1  0  0  0  0
 12 13  1  0  0  0  0
 12 30  1  0  0  0  0
 12 31  1  0  0  0  0
 13 14  2  0  0  0  0
 15 32  1  0  0  0  0
 16 21  2  0  0  0  0
 16 17  1  0  0  0  0
 17 18  2  0  0  0  0
 17 33  1  0  0  0  0
 18 19  1  0  0  0  0
 18 34  1  0  0  0  0
 19 20  2  0  0  0  0
 19 35  1  0  0  0  0
 20 21  1  0  0  0  0
 20 36  1  0  0  0  0
 21 37  1  0  0  0  0
M  END
$$$$
