ZINC000000054990      none
 OpenBabel11202420153D

 24 24  0  0  0  0  0  0  0  0999 V2000
   31.6913   33.5747   62.2677 C   0  0  0  0  0  0  0  0  0  0  0  0
   31.6861   34.8823   61.5187 C   0  0  0  0  0  0  0  0  0  0  0  0
   32.1438   34.9266   60.2484 C   0  0  0  0  0  0  0  0  0  0  0  0
   32.1349   36.1589   59.5532 C   0  0  0  0  0  0  0  0  0  0  0  0
   32.5429   36.2290   58.4029 O   0  0  0  0  0  0  0  0  0  0  0  0
   31.6437   37.3081   60.2164 C   0  0  0  0  0  0  0  0  0  0  0  0
   31.2008   37.1976   61.4878 C   0  0  0  0  0  0  0  0  0  0  0  0
   30.6766   38.4161   62.2032 C   0  0  0  0  0  0  0  0  0  0  0  0
   31.2224   36.0019   62.1270 N   0  0  0  0  0  0  0  0  0  0  0  0
   30.7557   35.9218   63.4456 N   0  0  0  0  0  0  0  0  0  0  0  0
   31.6054   36.1138   64.4741 C   0  0  0  0  0  0  0  0  0  0  0  0
   31.1564   36.0365   65.7425 N   0  0  0  0  0  0  0  0  0  0  0  0
   33.2549   36.4559   64.1692 S   0  0  0  0  0  0  0  0  0  0  0  0
   32.6596   33.4352   62.7486 H   0  0  0  0  0  0  0  0  0  0  0  0
   30.9078   33.5868   63.0254 H   0  0  0  0  0  0  0  0  0  0  0  0
   31.5104   32.7561   61.5710 H   0  0  0  0  0  0  0  0  0  0  0  0
   32.5163   34.0326   59.7706 H   0  0  0  0  0  0  0  0  0  0  0  0
   31.6242   38.2630   59.7122 H   0  0  0  0  0  0  0  0  0  0  0  0
   31.4712   38.8515   62.8092 H   0  0  0  0  0  0  0  0  0  0  0  0
   30.3351   39.1482   61.4714 H   0  0  0  0  0  0  0  0  0  0  0  0
   29.8444   38.1299   62.8463 H   0  0  0  0  0  0  0  0  0  0  0  0
   29.8211   35.7279   63.6183 H   0  0  0  0  0  0  0  0  0  0  0  0
   30.2218   35.8426   65.9152 H   0  0  0  0  0  0  0  0  0  0  0  0
   31.7679   36.1747   66.4826 H   0  0  0  0  0  0  0  0  0  0  0  0
  1  2  1  0  0  0  0
  1 14  1  0  0  0  0
  1 15  1  0  0  0  0
  1 16  1  0  0  0  0
  2  9  1  0  0  0  0
  2  3  2  0  0  0  0
  3  4  1  0  0  0  0
  3 17  1  0  0  0  0
  4  5  2  0  0  0  0
  4  6  1  0  0  0  0
  6  7  2  0  0  0  0
  6 18  1  0  0  0  0
  7  8  1  0  0  0  0
  7  9  1  0  0  0  0
  8 19  1  0  0  0  0
  8 20  1  0  0  0  0
  8 21  1  0  0  0  0
  9 10  1  0  0  0  0
 10 11  1  0  0  0  0
 10 22  1  0  0  0  0
 11 12  1  0  0  0  0
 11 13  2  0  0  0  0
 12 23  1  0  0  0  0
 12 24  1  0  0  0  0
M  END
$$$$
