ZINC000000053804      none
 OpenBabel11202420153D

 28 30  0  0  0  0  0  0  0  0999 V2000
   32.1059   34.1302   58.2790 C   0  0  0  0  0  0  0  0  0  0  0  0
   32.1556   35.3776   58.9744 O   0  0  0  0  0  0  0  0  0  0  0  0
   32.5960   36.4552   58.2761 C   0  0  0  0  0  0  0  0  0  0  0  0
   32.9734   36.3179   56.9493 C   0  0  0  0  0  0  0  0  0  0  0  0
   33.4213   37.4147   56.2394 C   0  0  0  0  0  0  0  0  0  0  0  0
   33.4928   38.6594   56.8449 C   0  0  0  0  0  0  0  0  0  0  0  0
   34.0513   40.0308   55.9388 Cl  0  0  0  0  0  0  0  0  0  0  0  0
   33.1260   38.8119   58.1660 C   0  0  0  0  0  0  0  0  0  0  0  0
   32.6712   37.7103   58.8936 C   0  0  0  0  0  0  0  0  0  0  0  0
   32.2721   37.8674   60.3062 C   0  0  0  0  0  0  0  0  0  0  0  0
   32.8003   37.2489   61.3467 N   0  0  0  0  0  0  0  0  0  0  0  0
   32.1225   37.7060   62.4201 C   0  0  0  0  0  0  0  0  0  0  0  0
   32.3458   37.3117   63.8341 C   0  0  0  0  0  0  0  0  0  0  0  0
   32.6759   38.0684   64.8564 N   0  0  0  0  0  0  0  0  0  0  0  0
   32.7663   37.3845   65.8488 O   0  0  0  0  0  0  0  0  0  0  0  0
   32.5457   36.2052   65.7037 N   0  0  0  0  0  0  0  0  0  0  0  0
   32.2463   35.9680   64.4480 C   0  0  0  0  0  0  0  0  0  0  0  0
   31.9210   34.7592   63.8457 N   0  0  0  0  0  0  0  0  0  0  0  0
   31.2289   38.5564   61.9849 N   0  0  0  0  0  0  0  0  0  0  0  0
   31.2989   38.6620   60.7789 O   0  0  0  0  0  0  0  0  0  0  0  0
   31.7373   33.3545   58.9502 H   0  0  0  0  0  0  0  0  0  0  0  0
   31.4367   34.2178   57.4230 H   0  0  0  0  0  0  0  0  0  0  0  0
   33.1055   33.8668   57.9334 H   0  0  0  0  0  0  0  0  0  0  0  0
   32.9167   35.3518   56.4699 H   0  0  0  0  0  0  0  0  0  0  0  0
   33.7138   37.3027   55.2059 H   0  0  0  0  0  0  0  0  0  0  0  0
   33.1861   39.7827   58.6355 H   0  0  0  0  0  0  0  0  0  0  0  0
   31.7219   34.7282   62.8968 H   0  0  0  0  0  0  0  0  0  0  0  0
   31.8928   33.9461   64.3738 H   0  0  0  0  0  0  0  0  0  0  0  0
  1  2  1  0  0  0  0
  1 21  1  0  0  0  0
  1 22  1  0  0  0  0
  1 23  1  0  0  0  0
  2  3  1  0  0  0  0
  3  9  2  0  0  0  0
  3  4  1  0  0  0  0
  4  5  2  0  0  0  0
  4 24  1  0  0  0  0
  5  6  1  0  0  0  0
  5 25  1  0  0  0  0
  6  7  1  0  0  0  0
  6  8  2  0  0  0  0
  8  9  1  0  0  0  0
  8 26  1  0  0  0  0
  9 10  1  0  0  0  0
 10 20  1  0  0  0  0
 10 11  2  0  0  0  0
 11 12  1  0  0  0  0
 12 13  1  0  0  0  0
 12 19  2  0  0  0  0
 13 17  1  0  0  0  0
 13 14  2  0  0  0  0
 14 15  1  0  0  0  0
 15 16  1  0  0  0  0
 16 17  2  0  0  0  0
 17 18  1  0  0  0  0
 18 27  1  0  0  0  0
 18 28  1  0  0  0  0
 19 20  1  0  0  0  0
M  END
$$$$
