ZINC000000029586      none
 OpenBabel11202420163D

 29 30  0  0  0  0  0  0  0  0999 V2000
   32.5903   33.6194   60.3910 C   0  0  0  0  0  0  0  0  0  0  0  0
   31.7819   34.7921   60.7335 N   0  0  0  0  0  0  0  0  0  0  0  0
   30.9614   35.4412   59.7079 C   0  0  0  0  0  0  0  0  0  0  0  0
   31.7696   36.5124   59.0219 C   0  0  0  0  0  0  0  0  0  0  0  0
   31.7599   37.8053   59.5109 C   0  0  0  0  0  0  0  0  0  0  0  0
   32.5050   38.7868   58.8845 C   0  0  0  0  0  0  0  0  0  0  0  0
   33.2517   38.4776   57.7631 C   0  0  0  0  0  0  0  0  0  0  0  0
   33.2568   37.1860   57.2706 C   0  0  0  0  0  0  0  0  0  0  0  0
   32.5160   36.2033   57.9001 C   0  0  0  0  0  0  0  0  0  0  0  0
   31.7929   35.2739   61.9922 C   0  0  0  0  0  0  0  0  0  0  0  0
   32.4743   34.7348   62.8442 O   0  0  0  0  0  0  0  0  0  0  0  0
   30.9841   36.4473   62.3347 C   0  0  0  0  0  0  0  0  0  0  0  0
   31.4684   37.6303   62.8178 C   0  0  0  0  0  0  0  0  0  0  0  0
   30.4871   38.5637   63.0541 C   0  0  0  0  0  0  0  0  0  0  0  0
   29.2418   38.1611   62.7749 C   0  0  0  0  0  0  0  0  0  0  0  0
   29.2353   36.5587   62.1895 S   0  0  0  0  0  0  0  0  0  0  0  0
   32.0464   32.7129   60.6567 H   0  0  0  0  0  0  0  0  0  0  0  0
   32.7952   33.6194   59.3203 H   0  0  0  0  0  0  0  0  0  0  0  0
   33.5308   33.6531   60.9409 H   0  0  0  0  0  0  0  0  0  0  0  0
   30.6434   34.7003   58.9745 H   0  0  0  0  0  0  0  0  0  0  0  0
   30.0847   35.8903   60.1744 H   0  0  0  0  0  0  0  0  0  0  0  0
   31.1733   38.0478   60.3847 H   0  0  0  0  0  0  0  0  0  0  0  0
   32.5008   39.7960   59.2690 H   0  0  0  0  0  0  0  0  0  0  0  0
   33.8309   39.2453   57.2714 H   0  0  0  0  0  0  0  0  0  0  0  0
   33.8400   36.9444   56.3942 H   0  0  0  0  0  0  0  0  0  0  0  0
   32.5199   35.1941   57.5153 H   0  0  0  0  0  0  0  0  0  0  0  0
   32.5180   37.8152   62.9923 H   0  0  0  0  0  0  0  0  0  0  0  0
   30.7053   39.5498   63.4368 H   0  0  0  0  0  0  0  0  0  0  0  0
   28.3588   38.7697   62.9026 H   0  0  0  0  0  0  0  0  0  0  0  0
  1  2  1  0  0  0  0
  1 17  1  0  0  0  0
  1 18  1  0  0  0  0
  1 19  1  0  0  0  0
  2  3  1  0  0  0  0
  2 10  1  0  0  0  0
  3  4  1  0  0  0  0
  3 20  1  0  0  0  0
  3 21  1  0  0  0  0
  4  9  2  0  0  0  0
  4  5  1  0  0  0  0
  5  6  2  0  0  0  0
  5 22  1  0  0  0  0
  6  7  1  0  0  0  0
  6 23  1  0  0  0  0
  7  8  2  0  0  0  0
  7 24  1  0  0  0  0
  8  9  1  0  0  0  0
  8 25  1  0  0  0  0
  9 26  1  0  0  0  0
 10 11  2  0  0  0  0
 10 12  1  0  0  0  0
 12 16  1  0  0  0  0
 12 13  2  0  0  0  0
 13 14  1  0  0  0  0
 13 27  1  0  0  0  0
 14 15  2  0  0  0  0
 14 28  1  0  0  0  0
 15 16  1  0  0  0  0
 15 29  1  0  0  0  0
M  END
$$$$
