ZINC000000022622      none
 OpenBabel11202420153D

 28 30  0  0  1  0  0  0  0  0999 V2000
   32.0120   36.9380   57.8996 O   0  0  0  0  0  0  0  0  0  0  0  0
   32.7249   37.3881   57.0242 C   0  0  0  0  0  0  0  0  0  0  0  0
   33.4703   38.5487   57.2631 C   0  0  0  0  0  0  0  0  0  0  0  0
   34.2900   39.0583   56.3133 C   0  0  0  0  0  0  0  0  0  0  0  0
   34.4055   38.4257   55.1045 N   0  0  0  0  0  0  0  0  0  0  0  0
   34.7574   39.1606   53.9760 C   0  0  0  0  0  0  0  0  0  0  0  0
   34.6063   40.5420   53.9630 C   0  0  0  0  0  0  0  0  0  0  0  0
   34.9781   41.2643   52.8464 C   0  0  0  0  0  0  0  0  0  0  0  0
   35.5009   40.6200   51.7398 C   0  0  0  0  0  0  0  0  0  0  0  0
   35.6490   39.2433   51.7452 C   0  0  0  0  0  0  0  0  0  0  0  0
   35.2760   38.5203   52.8549 C   0  0  0  0  0  0  0  0  0  0  0  0
   35.4134   37.0162   52.8922 C   0  0  0  0  0  0  0  0  0  0  0  0
   34.1683   36.4721   53.6108 C   0  0  0  0  0  0  0  0  0  0  0  0
   34.1659   36.9791   55.0520 C   0  0  2  0  0  0  0  0  0  0  0  0
   34.9435   36.4655   55.6173 H   0  0  0  0  0  0  0  0  0  0  0  0
   32.8004   36.6923   55.6887 C   0  0  0  0  0  0  0  0  0  0  0  0
   33.3907   39.0447   58.2192 H   0  0  0  0  0  0  0  0  0  0  0  0
   34.8470   39.9631   56.5069 H   0  0  0  0  0  0  0  0  0  0  0  0
   34.1984   41.0498   54.8244 H   0  0  0  0  0  0  0  0  0  0  0  0
   34.8604   42.3378   52.8372 H   0  0  0  0  0  0  0  0  0  0  0  0
   35.7936   41.1909   50.8711 H   0  0  0  0  0  0  0  0  0  0  0  0
   36.0564   38.7388   50.8815 H   0  0  0  0  0  0  0  0  0  0  0  0
   36.3122   36.7380   53.4425 H   0  0  0  0  0  0  0  0  0  0  0  0
   35.4607   36.6200   51.8778 H   0  0  0  0  0  0  0  0  0  0  0  0
   34.1921   35.3824   53.6075 H   0  0  0  0  0  0  0  0  0  0  0  0
   33.2707   36.8205   53.0999 H   0  0  0  0  0  0  0  0  0  0  0  0
   32.6826   35.6179   55.8300 H   0  0  0  0  0  0  0  0  0  0  0  0
   32.0083   37.0636   55.0386 H   0  0  0  0  0  0  0  0  0  0  0  0
  1  2  2  0  0  0  0
  2 16  1  0  0  0  0
  2  3  1  0  0  0  0
  3  4  2  0  0  0  0
  3 17  1  0  0  0  0
  4  5  1  0  0  0  0
  4 18  1  0  0  0  0
  5 14  1  0  0  0  0
  5  6  1  0  0  0  0
  6 11  2  0  0  0  0
  6  7  1  0  0  0  0
  7  8  2  0  0  0  0
  7 19  1  0  0  0  0
  8  9  1  0  0  0  0
  8 20  1  0  0  0  0
  9 10  2  0  0  0  0
  9 21  1  0  0  0  0
 10 11  1  0  0  0  0
 10 22  1  0  0  0  0
 11 12  1  0  0  0  0
 12 13  1  0  0  0  0
 12 23  1  0  0  0  0
 12 24  1  0  0  0  0
 13 14  1  0  0  0  0
 13 25  1  0  0  0  0
 13 26  1  0  0  0  0
 14 15  1  1  0  0  0
 14 16  1  0  0  0  0
 16 27  1  0  0  0  0
 16 28  1  0  0  0  0
M  END
$$$$
