ZINC000000009125      none
 OpenBabel11202420153D

 39 41  0  0  0  0  0  0  0  0999 V2000
   30.9152   32.7905   56.6929 C   0  0  0  0  0  0  0  0  0  0  0  0
   31.8240   33.6068   55.7715 C   0  0  0  0  0  0  0  0  0  0  0  0
   33.4129   33.8923   56.5901 S   0  0  0  0  0  0  0  0  0  0  0  0
   33.0627   35.4079   57.4179 C   0  0  0  0  0  0  0  0  0  0  0  0
   32.5689   35.3792   58.6341 N   0  0  0  0  0  0  0  0  0  0  0  0
   32.2798   36.5062   59.3059 C   0  0  0  0  0  0  0  0  0  0  0  0
   31.7183   36.4270   60.6741 C   0  0  0  0  0  0  0  0  0  0  0  0
   30.5020   35.7804   60.8939 C   0  0  0  0  0  0  0  0  0  0  0  0
   29.9801   35.7070   62.1687 C   0  0  0  0  0  0  0  0  0  0  0  0
   30.6628   36.2746   63.2344 C   0  0  0  0  0  0  0  0  0  0  0  0
   30.1454   36.1990   64.4892 O   0  0  0  0  0  0  0  0  0  0  0  0
   28.8959   35.5213   64.6359 C   0  0  0  0  0  0  0  0  0  0  0  0
   31.8778   36.9216   63.0213 C   0  0  0  0  0  0  0  0  0  0  0  0
   32.5452   37.4773   64.0678 O   0  0  0  0  0  0  0  0  0  0  0  0
   33.4811   36.6451   64.7560 C   0  0  0  0  0  0  0  0  0  0  0  0
   32.4024   37.0036   61.7445 C   0  0  0  0  0  0  0  0  0  0  0  0
   32.5103   37.7398   58.7257 C   0  0  0  0  0  0  0  0  0  0  0  0
   33.0449   37.7806   57.4236 C   0  0  0  0  0  0  0  0  0  0  0  0
   33.3734   38.7685   56.6086 N   0  0  0  0  0  0  0  0  0  0  0  0
   33.8457   38.2577   55.4661 C   0  0  0  0  0  0  0  0  0  0  0  0
   33.8198   36.9111   55.5502 C   0  0  0  0  0  0  0  0  0  0  0  0
   33.3148   36.5924   56.7847 N   0  0  0  0  0  0  0  0  0  0  0  0
   29.9582   32.6186   56.2000 H   0  0  0  0  0  0  0  0  0  0  0  0
   31.3872   31.8332   56.9139 H   0  0  0  0  0  0  0  0  0  0  0  0
   30.7524   33.3383   57.6210 H   0  0  0  0  0  0  0  0  0  0  0  0
   31.3519   34.5640   55.5505 H   0  0  0  0  0  0  0  0  0  0  0  0
   31.9866   33.0589   54.8434 H   0  0  0  0  0  0  0  0  0  0  0  0
   29.9688   35.3370   60.0659 H   0  0  0  0  0  0  0  0  0  0  0  0
   29.0383   35.2060   62.3373 H   0  0  0  0  0  0  0  0  0  0  0  0
   28.5970   35.5332   65.6841 H   0  0  0  0  0  0  0  0  0  0  0  0
   28.1373   36.0238   64.0361 H   0  0  0  0  0  0  0  0  0  0  0  0
   29.0005   34.4897   64.2996 H   0  0  0  0  0  0  0  0  0  0  0  0
   33.9422   37.2100   65.5664 H   0  0  0  0  0  0  0  0  0  0  0  0
   34.2517   36.3127   64.0605 H   0  0  0  0  0  0  0  0  0  0  0  0
   32.9632   35.7781   65.1662 H   0  0  0  0  0  0  0  0  0  0  0  0
   33.3420   37.5091   61.5770 H   0  0  0  0  0  0  0  0  0  0  0  0
   32.2858   38.6515   59.2594 H   0  0  0  0  0  0  0  0  0  0  0  0
   34.1913   38.8287   54.6169 H   0  0  0  0  0  0  0  0  0  0  0  0
   34.1367   36.2148   54.7878 H   0  0  0  0  0  0  0  0  0  0  0  0
  1  2  1  0  0  0  0
  1 23  1  0  0  0  0
  1 24  1  0  0  0  0
  1 25  1  0  0  0  0
  2  3  1  0  0  0  0
  2 26  1  0  0  0  0
  2 27  1  0  0  0  0
  3  4  1  0  0  0  0
  4 22  1  0  0  0  0
  4  5  2  0  0  0  0
  5  6  1  0  0  0  0
  6  7  1  0  0  0  0
  6 17  2  0  0  0  0
  7 16  2  0  0  0  0
  7  8  1  0  0  0  0
  8  9  2  0  0  0  0
  8 28  1  0  0  0  0
  9 10  1  0  0  0  0
  9 29  1  0  0  0  0
 10 11  1  0  0  0  0
 10 13  2  0  0  0  0
 11 12  1  0  0  0  0
 12 30  1  0  0  0  0
 12 31  1  0  0  0  0
 12 32  1  0  0  0  0
 13 14  1  0  0  0  0
 13 16  1  0  0  0  0
 14 15  1  0  0  0  0
 15 33  1  0  0  0  0
 15 34  1  0  0  0  0
 15 35  1  0  0  0  0
 16 36  1  0  0  0  0
 17 18  1  0  0  0  0
 17 37  1  0  0  0  0
 18 22  1  0  0  0  0
 18 19  2  0  0  0  0
 19 20  1  0  0  0  0
 20 21  2  0  0  0  0
 20 38  1  0  0  0  0
 21 22  1  0  0  0  0
 21 39  1  0  0  0  0
M  END
$$$$
