ZINC000000029643      none
 OpenBabel11202420163D

 28 29  0  0  0  0  0  0  0  0999 V2000
   32.4293   35.4352   55.6947 O   0  0  0  0  0  0  0  0  0  0  0  0
   33.4271   35.8903   55.1769 C   0  0  0  0  0  0  0  0  0  0  0  0
   34.0178   35.2213   53.9626 C   0  0  0  0  0  0  0  0  0  0  0  0
   34.3996   33.8043   54.3055 C   0  0  0  0  0  0  0  0  0  0  0  0
   34.3624   32.8236   53.3321 C   0  0  0  0  0  0  0  0  0  0  0  0
   34.7173   31.5248   53.6455 C   0  0  0  0  0  0  0  0  0  0  0  0
   35.1001   31.2047   54.9338 C   0  0  0  0  0  0  0  0  0  0  0  0
   35.1313   32.1844   55.9096 C   0  0  0  0  0  0  0  0  0  0  0  0
   34.7816   33.4842   55.5949 C   0  0  0  0  0  0  0  0  0  0  0  0
   34.0044   36.9975   55.6841 N   0  0  0  0  0  0  0  0  0  0  0  0
   33.4541   37.6202   56.8051 C   0  0  0  0  0  0  0  0  0  0  0  0
   33.5860   38.9948   56.9962 C   0  0  0  0  0  0  0  0  0  0  0  0
   33.0238   39.5730   58.1154 C   0  0  0  0  0  0  0  0  0  0  0  0
   32.3770   38.8407   59.0025 N   0  0  0  0  0  0  0  0  0  0  0  0
   32.2349   37.5365   58.8597 C   0  0  0  0  0  0  0  0  0  0  0  0
   32.7635   36.8832   57.7657 C   0  0  0  0  0  0  0  0  0  0  0  0
   33.2829   35.2150   53.1577 H   0  0  0  0  0  0  0  0  0  0  0  0
   34.9040   35.7687   53.6413 H   0  0  0  0  0  0  0  0  0  0  0  0
   34.0598   33.0727   52.3258 H   0  0  0  0  0  0  0  0  0  0  0  0
   34.6918   30.7593   52.8841 H   0  0  0  0  0  0  0  0  0  0  0  0
   35.3721   30.1891   55.1810 H   0  0  0  0  0  0  0  0  0  0  0  0
   35.4295   31.9343   56.9171 H   0  0  0  0  0  0  0  0  0  0  0  0
   34.8064   34.2496   56.3565 H   0  0  0  0  0  0  0  0  0  0  0  0
   34.8024   37.3615   55.2699 H   0  0  0  0  0  0  0  0  0  0  0  0
   34.1179   39.5992   56.2763 H   0  0  0  0  0  0  0  0  0  0  0  0
   33.1177   40.6378   58.2697 H   0  0  0  0  0  0  0  0  0  0  0  0
   31.6983   36.9734   59.6090 H   0  0  0  0  0  0  0  0  0  0  0  0
   32.6442   35.8155   57.6552 H   0  0  0  0  0  0  0  0  0  0  0  0
  1  2  2  0  0  0  0
  2  3  1  0  0  0  0
  2 10  1  0  0  0  0
  3  4  1  0  0  0  0
  3 17  1  0  0  0  0
  3 18  1  0  0  0  0
  4  9  2  0  0  0  0
  4  5  1  0  0  0  0
  5  6  2  0  0  0  0
  5 19  1  0  0  0  0
  6  7  1  0  0  0  0
  6 20  1  0  0  0  0
  7  8  2  0  0  0  0
  7 21  1  0  0  0  0
  8  9  1  0  0  0  0
  8 22  1  0  0  0  0
  9 23  1  0  0  0  0
 10 11  1  0  0  0  0
 10 24  1  0  0  0  0
 11 16  2  0  0  0  0
 11 12  1  0  0  0  0
 12 13  2  0  0  0  0
 12 25  1  0  0  0  0
 13 14  1  0  0  0  0
 13 26  1  0  0  0  0
 14 15  2  0  0  0  0
 15 16  1  0  0  0  0
 15 27  1  0  0  0  0
 16 28  1  0  0  0  0
M  END
$$$$
